82
3cell_dimer_2.xyz
     C   1.918374   2.766371   8.728122
     C   1.123287   3.492866   7.864453
     C   1.789898   2.863960  10.115634
     O   2.862533   1.976173   8.167020
     H   1.232548   3.418319   6.943209
     C   0.173890   4.322371   8.384912
     C   0.807246   3.721928  10.584160
     C   2.659752   2.073762  10.982689
     H   3.285038   1.595306   8.757474
     C   0.017679   4.443001   9.744201
     O  -0.654694   5.093593   7.627368
     H   0.683362   3.807319  11.502018
     O   3.563313   1.365023  10.472391
     C   2.486953   2.110358  12.424392
     H  -0.626853   5.017691  10.088538
     C  -0.469872   5.103081   6.222922
     C   3.259261   1.420459  13.251932
     H   1.807692   2.637608  12.781149
     H   0.402132   5.447352   6.017447
     H  -1.137977   5.658795   5.816490
     H  -0.548867   4.208517   5.884228
     H   3.923897   0.902696  12.859048
     C   3.186115   1.381153  14.687991
     C   2.274055   2.113069  15.424084
     C   4.042959   0.584177  15.429729
     H   1.688133   2.675560  14.971364
     C   2.196127   2.045299  16.787888
     H   4.689493   0.092167  14.977009
     C   3.990376   0.486589  16.785629
     H   1.565659   2.561706  17.234962
     C   3.046151   1.211728  17.522852
     H   4.588952  -0.070481  17.229319
     N   2.970789   1.148024  18.875366
     C   1.997284   1.912469  19.628395
     C   3.827670   0.250749  19.627266
     H   1.118556   1.561421  19.464693
     H   2.030425   2.831431  19.355183
     H   2.196164   1.850121  20.565445
     H   3.664276  -0.654658  19.349537
     H   3.638158   0.337495  20.564316
     H   4.746602   0.474390  19.464693
     H   4.551142   0.070481   5.350222
     C   5.149717  -0.486588   5.793911
     C   6.093943  -1.211727   5.056688
     C   5.097134  -0.584177   7.149811
     N   6.169304  -1.148024   3.704174
     C   6.943967  -2.045299   5.791652
     C   5.953978  -1.381152   7.891549
     H   4.450601  -0.092167   7.602532
     C   5.312425  -0.250749   2.952275
     C   7.142810  -1.912469   2.951146
     H   7.574435  -2.561707   5.344577
     C   6.866039  -2.113069   7.155457
     C   5.880834  -1.420459   9.327608
     H   5.475818   0.654658   3.230003
     H   4.393492  -0.474390   3.114848
     H   5.501935  -0.337495   2.015224
     H   6.943930  -1.850121   2.014095
     H   7.109670  -2.831430   3.224358
     H   8.021537  -1.561420   3.114848
     H   7.451962  -2.675559   7.608176
     H   5.216197  -0.902697   9.720492
     C   6.653140  -2.110357  10.155149
     H   7.332402  -2.637609   9.798391
     C   6.480341  -2.073762  11.596852
     O   5.576780  -1.365023  12.107149
     C   7.350195  -2.863960  12.463906
     C   7.221720  -2.766372  13.851419
     C   8.332848  -3.721929  11.995380
     O   6.277561  -1.976173  14.412520
     C   8.016806  -3.492866  14.715086
     H   8.456732  -3.807319  11.077522
     C   9.122416  -4.443002  12.835340
     H   5.855056  -1.595305  13.822065
     C   8.966204  -4.322371  14.194628
     H   7.907546  -3.418319  15.636332
     H   9.766948  -5.017692  12.491001
     O   9.794788  -5.093594  14.952171
     C   9.609964  -5.103081  16.356619
     H   8.737962  -5.447352  16.562092
     H   9.688961  -4.208517  16.695312
     H  10.278070  -5.658795  16.763050
