82
5-.xyz
     H  -1.737268   9.746681  11.077522
     C  -1.861152   9.832071  11.995380
     C  -2.843805  10.690040  12.463906
     C  -1.071585   9.110998  12.835340
     C  -3.713659  11.480238  11.596852
     C  -2.972280  10.787628  13.851419
     H  -0.427052   8.536308  12.491001
     C  -1.227796   9.231629  14.194628
     C  -3.540860  11.443643  10.155149
     O  -4.617220  12.188977  12.107149
     O  -3.916439  11.577826  14.412520
     C  -2.177194  10.061134  14.715086
     O  -0.399212   8.460406  14.952171
     H  -2.861598  10.916391   9.798391
     C  -4.313166  12.133541   9.327608
     H  -4.338944  11.958694  13.822065
     H  -2.286454  10.135681  15.636332
     C  -0.584035   8.450919  16.356619
     C  -4.240022  12.172848   7.891549
     H  -4.977804  12.651303   9.720492
     H  -1.456038   8.106647  16.562092
     H  -0.505040   9.345483  16.695312
     H   0.084070   7.895205  16.763050
     C  -3.327961  11.440931   7.155457
     C  -5.096866  12.969823   7.149811
     H  -2.742039  10.878441   7.608176
     C  -3.250033  11.508701   5.791652
     C  -5.044283  13.067411   5.793911
     H  -5.743400  13.461833   7.602532
     H  -2.619565  10.992293   5.344577
     C  -4.100058  12.342273   5.056688
     H  -5.642859  13.624480   5.350222
     N  -4.024696  12.405976   3.704174
     C  -4.881576  13.303251   2.952275
     C  -3.051190  11.641531   2.951146
     H  -5.800508  13.079610   3.114848
     H  -4.692065  13.216505   2.015224
     H  -4.718183  14.208658   3.230003
     H  -3.250071  11.703879   2.014095
     H  -3.084331  10.722569   3.224358
     H  -2.172463  11.992579   3.114848
     H  -5.431541   9.338706  10.989462
     C  -6.062010   8.822299  11.436537
     C  -6.912035   7.988728  10.701573
     C  -6.139938   8.890069  12.800342
     C  -7.856259   7.263588  11.438795
     N  -6.836673   7.925024   9.349059
     C  -7.051998   8.158153  13.536434
     H  -5.554016   9.452559  13.253061
     H  -8.454835   6.706519  10.995108
     C  -7.908842   7.361177  12.794697
     C  -7.693552   7.027749   8.597160
     C  -5.863167   8.689469   8.596031
     C  -7.125143   8.197459  14.972493
     H  -8.555376   6.869167  13.247416
     H  -8.612485   7.251390   8.759732
     H  -7.530159   6.122342   8.874888
     H  -7.504042   7.114495   7.660109
     H  -6.062047   8.627121   7.658980
     H  -5.896307   9.608430   8.869244
     H  -4.984440   8.338421   8.759732
     H  -7.789780   7.679697  15.365377
     C  -6.352837   8.887358  15.800034
     H  -5.673574   9.414608  15.443277
     C  -6.525636   8.850762  17.241737
     O  -7.429196   8.142023  17.752033
     C  -5.655782   9.640961  18.108791
     C  -5.784257   9.543371  19.496304
     C  -4.673129  10.498929  17.640266
     O  -6.728416   8.753173  20.057405
     C  -4.989171  10.269865  20.359972
     H  -4.549245  10.584318  16.722408
     C  -3.883562  11.220001  18.480225
     H  -7.150921   8.372306  19.466951
     C  -4.039773  11.099370  19.839512
     H  -5.098431  10.195319  21.281216
     H  -3.239029  11.794691  18.135887
     O  -3.211189  11.870593  20.597057
     C  -3.396012  11.880081  22.001503
     H  -3.317017  10.985518  22.340199
     H  -4.268015  12.224353  22.206978
     H  -2.727907  12.435795  22.407936
