82
7-.xyz
     H  -0.646150   0.902696   1.569278
     C  -1.310786   1.420459   1.962162
     C  -1.383932   1.381153   3.398221
     C  -2.083094   2.110358   1.134622
     C  -0.527088   0.584177   4.139959
     C  -2.295992   2.113069   4.134314
     C  -1.910295   2.073762  -0.307081
     H  -2.762355   2.637608   1.491379
     C  -0.579671   0.486589   5.495860
     H   0.119446   0.092167   3.687239
     C  -2.373920   2.045299   5.498118
     H  -2.881914   2.675560   3.681594
     C  -2.780149   2.863960  -1.174136
     O  -1.006734   1.365023  -0.817379
     C  -1.523896   1.211728   6.233082
     H   0.018905  -0.070481   5.939548
     H  -3.004388   2.561706   5.945193
     C  -3.762801   3.721928  -0.705610
     C  -2.651673   2.766371  -2.561648
     N  -1.599257   1.148024   7.585596
     C  -4.552368   4.443001  -1.545569
     H  -3.886685   3.807319   0.212248
     C  -3.446759   3.492866  -3.425317
     O  -1.707514   1.976173  -3.122750
     C  -2.572763   1.912469   8.338624
     C  -0.742377   0.250749   8.337495
     C  -4.396157   4.322371  -2.904858
     H  -5.196900   5.017691  -1.201232
     H  -3.337499   3.418319  -4.346561
     H  -1.285009   1.595306  -2.532296
     H  -2.539622   2.831431   8.065412
     H  -2.373883   1.850121   9.275676
     H  -3.451490   1.561421   8.174923
     H  -0.931889   0.337495   9.274547
     H   0.176555   0.474390   8.174923
     H  -0.905771  -0.654658   8.059767
     O  -5.224741   5.093593  -3.662402
     C  -5.039918   5.103081  -5.066848
     H  -5.708024   5.658795  -5.473280
     H  -4.167915   5.447352  -5.272323
     H  -5.118914   4.208517  -5.405542
     C   1.288082   5.565272   0.588196
     N   1.212719   5.628976   1.940712
     C   0.438056   4.731701  -0.146768
     C   2.232306   6.290411  -0.149026
     C   0.239214   4.864531   2.693739
     C   2.069599   6.526251   2.692610
     C   0.515985   4.663931  -1.510571
     H  -0.192411   4.215294   0.300308
     H   2.830882   6.847481   0.294662
     C   2.284889   6.192822  -1.504927
     H   0.272354   3.945569   2.420527
     H   0.438094   4.926879   3.630790
     H  -0.639514   5.215580   2.530037
     H   1.906205   7.431659   2.414883
     H   1.880087   6.439506   3.629662
     H   2.988532   6.302610   2.530037
     H  -0.069938   4.101440  -1.963291
     C   1.428045   5.395848  -2.246664
     H   2.931423   6.684833  -1.957646
     C   1.501190   5.356541  -3.682723
     C   0.728883   4.666642  -4.510263
     H   2.165827   5.874304  -4.075607
     C   0.901682   4.703238  -5.951967
     H   0.049621   4.139392  -4.153507
     C   0.031828   3.913039  -6.819021
     O   1.805243   5.411976  -6.462265
     C  -0.950824   3.055072  -6.350496
     C   0.160304   4.010628  -8.206533
     C  -1.740392   2.333999  -7.190454
     H  -1.074708   2.969681  -5.432637
     C  -0.634783   3.284134  -9.070202
     O   1.104463   4.800827  -8.767635
     H  -2.384924   1.759309  -6.846117
     C  -1.584181   2.454629  -8.549743
     H  -0.525523   3.358681  -9.991446
     H   1.526968   5.181694  -8.177180
     O  -2.412764   1.683407  -9.307286
     C  -2.227942   1.673919 -10.711734
     H  -2.896047   1.118205 -11.118166
     H  -1.355938   1.329647 -10.917208
     H  -2.306937   2.568483 -11.050427
