82
8-.xyz
     H   5.216197  12.651303   9.720492
     C   5.880834  12.133541   9.327608
     C   5.953978  12.172848   7.891549
     C   6.653140  11.443643  10.155149
     C   5.097134  12.969823   7.149811
     C   6.866039  11.440931   7.155457
     H   7.332402  10.916391   9.798391
     C   6.480341  11.480238  11.596852
     C   5.149717  13.067411   5.793911
     H   4.450601  13.461833   7.602532
     C   6.943967  11.508701   5.791652
     H   7.451962  10.878441   7.608176
     O   5.576780  12.188977  12.107149
     C   7.350195  10.690040  12.463906
     C   6.093943  12.342273   5.056688
     H   4.551142  13.624480   5.350222
     H   7.574435  10.992293   5.344577
     C   7.221720  10.787628  13.851419
     C   8.332848   9.832071  11.995380
     N   6.169304  12.405976   3.704174
     O   6.277561  11.577826  14.412520
     C   8.016806  10.061134  14.715086
     H   8.456732   9.746681  11.077522
     C   9.122416   9.110998  12.835340
     C   7.142810  11.641531   2.951146
     C   5.312425  13.303251   2.952275
     H   5.855056  11.958694  13.822065
     C   8.966204   9.231629  14.194628
     H   7.907546  10.135681  15.636332
     H   9.766948   8.536308  12.491001
     H   7.109670  10.722569   3.224358
     H   6.943930  11.703879   2.014095
     H   8.021537  11.992579   3.114848
     H   5.501935  13.216505   2.015224
     H   4.393492  13.079610   3.114848
     H   5.475818  14.208658   3.230003
     O   9.794788   8.460406  14.952171
     C   9.609964   8.450919  16.356619
     H   8.737962   8.106647  16.562092
     H   9.688961   9.345483  16.695312
     H  10.278070   7.895205  16.763050
     H   8.028173   7.679697   4.075607
     C   8.692810   8.197459   3.682723
     C   8.765955   8.158153   2.246664
     C   9.465117   8.887358   4.510263
     C   7.909111   7.361177   1.504926
     C   9.678016   8.890069   1.510571
     H  10.144379   9.414608   4.153507
     C   9.292318   8.850762   5.951967
     C   7.961694   7.263588   0.149025
     H   7.262578   6.869167   1.957646
     C   9.755943   8.822299   0.146767
     H  10.263938   9.452559   1.963291
     O   8.388758   8.142023   6.462264
     C  10.162172   9.640961   6.819021
     C   8.905919   7.988728  -0.588197
     H   7.363119   6.706519  -0.294662
     H  10.386412   9.338706  -0.300308
     C  10.033697   9.543371   8.206533
     C  11.144825  10.498929   6.350496
     N   8.981281   7.925024  -1.940711
     O   9.089538   8.753173   8.767635
     C  10.828783  10.269865   9.070202
     H  11.268708  10.584318   5.432638
     C  11.934391  11.220001   7.190454
     C   8.124401   7.027749  -2.692610
     C   9.954786   8.689469  -2.693739
     H   8.667032   8.372306   8.177181
     C  11.778181  11.099370   8.549743
     H  10.719522  10.195319   9.991446
     H  12.578924  11.794691   6.846117
     H   7.205469   7.251390  -2.530038
     H   8.287794   6.122342  -2.414882
     H   8.313912   7.114495  -3.629661
     H   9.755907   8.627121  -3.630790
     H   9.921646   9.608430  -2.420527
     H  10.833513   8.338421  -2.530038
     O  12.606764  11.870593   9.307286
     C  12.421942  11.880081  10.711734
     H  12.500937  10.985518  11.050427
     H  11.549938  12.224353  10.917208
     H  13.090047  12.435795  11.118165
