82
9-.xyz
     H   5.216197  12.651303   9.720492
     C   5.880834  12.133541   9.327608
     C   5.953978  12.172848   7.891549
     C   6.653140  11.443643  10.155149
     C   5.097134  12.969823   7.149811
     C   6.866039  11.440931   7.155457
     H   7.332402  10.916391   9.798391
     C   6.480341  11.480238  11.596852
     C   5.149717  13.067411   5.793911
     H   4.450601  13.461833   7.602532
     C   6.943967  11.508701   5.791652
     H   7.451962  10.878441   7.608176
     O   5.576780  12.188977  12.107149
     C   7.350195  10.690040  12.463906
     C   6.093943  12.342273   5.056688
     H   4.551142  13.624480   5.350222
     H   7.574435  10.992293   5.344577
     C   7.221720  10.787628  13.851419
     C   8.332848   9.832071  11.995380
     N   6.169304  12.405976   3.704174
     O   6.277561  11.577826  14.412520
     C   8.016806  10.061134  14.715086
     H   8.456732   9.746681  11.077522
     C   9.122416   9.110998  12.835340
     C   7.142810  11.641531   2.951146
     C   5.312425  13.303251   2.952275
     H   5.855056  11.958694  13.822065
     C   8.966204   9.231629  14.194628
     H   7.907546  10.135681  15.636332
     H   9.766948   8.536308  12.491001
     H   7.109670  10.722569   3.224358
     H   6.943930  11.703879   2.014095
     H   8.021537  11.992579   3.114848
     H   5.501935  13.216505   2.015224
     H   4.393492  13.079610   3.114848
     H   5.475818  14.208658   3.230003
     O   9.794788   8.460406  14.952171
     C   9.609964   8.450919  16.356619
     H   8.737962   8.106647  16.562092
     H   9.688961   9.345483  16.695312
     H  10.278070   7.895205  16.763050
     C   3.281966   7.988728  10.701573
     N   3.357327   7.925024   9.349059
     C   2.337741   7.263588  11.438795
     C   4.131990   8.822299  11.436537
     C   4.330833   8.689469   8.596031
     C   2.500448   7.027749   8.597160
     H   1.739165   6.706519  10.995108
     C   2.285158   7.361177  12.794697
     H   4.762459   9.338706  10.989462
     C   4.054062   8.890069  12.800342
     H   4.297693   9.608430   8.869244
     H   4.131953   8.627121   7.658980
     H   5.209560   8.338421   8.759732
     H   2.663841   6.122342   8.874888
     H   2.689959   7.114495   7.660109
     H   1.581515   7.251390   8.759732
     H   1.638624   6.869167  13.247416
     C   3.142002   8.158153  13.536434
     H   4.639985   9.452559  13.253061
     C   3.068857   8.197459  14.972493
     H   2.404220   7.679697  15.365377
     C   3.841164   8.887358  15.800034
     H   4.520426   9.414608  15.443277
     C   3.668365   8.850762  17.241737
     O   2.764804   8.142023  17.752033
     C   4.538218   9.640961  18.108791
     C   4.409743   9.543371  19.496304
     C   5.520871  10.498929  17.640266
     O   3.465584   8.753173  20.057405
     C   5.204829  10.269865  20.359972
     H   5.644755  10.584318  16.722408
     C   6.310438  11.220001  18.480225
     H   3.043079   8.372306  19.466951
     C   6.154228  11.099370  19.839512
     H   5.095570  10.195319  21.281216
     H   6.954971  11.794691  18.135887
     O   6.982811  11.870593  20.597057
     C   6.797988  11.880081  22.001503
     H   6.876984  10.985518  22.340199
     H   5.925985  12.224353  22.206978
     H   7.466094  12.435795  22.407936
