148
1-opt-opt.xyz
     C   4.930540   3.444450   4.515000
     C   3.704210   2.844830   4.263010
     H   2.997070   2.977510   4.851870
     C   3.526740   2.057000   3.153320
     H   2.701720   1.660000   2.993210
     C   4.571720   1.853360   2.273690
     H   4.455400   1.305170   1.531460
     C   5.780210   2.460380   2.496320
     H   6.472140   2.327500   1.890150
     C   5.998650   3.274740   3.612990
     C   7.279600   3.953760   3.877000
     C   8.411790   3.761530   2.989270
     H   8.332730   3.169840   2.275830
     C   9.571920   4.415350   3.170080
     H   9.586000   5.033480   3.864630
     C  10.798530   4.277430   2.421550
     C  10.971550   3.354860   1.383370
     H  10.254070   2.818090   1.134540
     C   0.040530   3.217770   0.724130
     H   0.118270   2.583590   0.048350
     C   1.154120   4.023490   1.050880
     C   0.986370   4.945130   2.096140
     H   1.697280   5.488080   2.350040
     C  -0.215660   5.054050   2.748080
     H  -0.293540   5.673210   3.437350
     C  -2.980890   2.949740  10.550880
     H  -3.136230   2.065230  10.890010
     H  -2.088810   3.005280  10.199610
     H  -3.612220   3.140010   9.853290
     C   3.439900   4.809270   0.642040
     H   3.148770   5.717430   0.532980
     H   4.153720   4.626190   0.026990
     H   3.749940   4.678650   1.541580
     N   2.333490   3.912310   0.378250
     O   5.046150   4.178380   5.638970
     H   5.787680   4.526430   5.662580
     O   7.384370   4.688730   4.887290
     C   4.453450   8.586950   1.107100
     C   1.717440   6.840550   6.729200
     C   2.194530   1.698050  10.137100
     C   5.679780   7.987330   1.359090
     C   2.943770   7.440170   6.981190
     C   0.968200   2.297670   9.885110
     H   6.386910   8.120010   0.770230
     H   3.650900   7.307490   6.392330
     H   0.261060   2.164990  10.473970
     C   5.857250   7.199500   2.468780
     C   3.121240   8.228000   8.090880
     C   0.790730   3.085500   8.775420
     H   6.682270   6.802500   2.628890
     H   3.946260   8.625000   8.250990
     H  -0.034290   3.482500   8.615310
     C   4.812270   6.995860   3.348410
     C   2.076260   8.431640   8.970510
     C   1.835710   3.289140   7.895790
     H   4.928590   6.447670   4.090640
     H   2.192580   8.979830   9.712740
     H   1.719390   3.837330   7.153560
     C   3.603770   7.602880   3.125770
     C   0.867760   7.824620   8.747870
     C   3.044200   2.682120   8.118420
     H   2.911850   7.470000   3.731950
     H   0.175840   7.957500   9.354050
     H   3.736130   2.815000   7.512250
     C   3.385340   8.417240   2.009110
     C   0.649330   7.010260   7.631210
     C   3.262640   1.867760   9.235090
     C   2.104390   9.096260   1.745100
     C  -0.631620   6.331240   7.367200
     C   4.543590   1.188740   9.499100
     C   0.972200   8.904030   2.632830
     C  -1.763810   6.523470   8.254930
     C   5.675780   1.380970   8.611370
     H   1.051260   8.312340   3.346270
     H  -1.684750   7.115160   8.968370
     H   5.596720   1.972660   7.897930
     C  -0.187930   9.557850   2.452020
     C  -2.923940   5.869650   8.074120
     C   6.835910   0.727150   8.792180
     H  -0.202010  10.175980   1.757470
     H  -2.938020   5.251520   7.379570
     H   6.849990   0.109020   9.486730
     C  -1.414540   9.419930   3.200550
     C  -4.150550   6.007570   8.822650
     C   8.062520   0.865070   8.043650
     H   5.634050   9.821150   4.080520
     H   2.898040   5.606350   9.702620
     H   1.013930   0.463850   7.163680
     C  -1.587560   8.497360   4.238730
     C  -4.323570   6.930140   9.860830
     C   8.235540   1.787640   7.005470
     H  -0.870080   7.960590   4.487560
     H  -3.606090   7.466910  10.109660
     H   7.518050   2.324410   6.756640
     C   9.343460   8.360270   4.897970
     C   6.607450   7.067230  10.520070
     C  -2.695480   1.924730   6.346230
     H   9.265720   7.726090   5.573750
     H   6.529700   7.701410  11.195850
     H  -2.617740   2.558910   5.670450
     C   8.229870   9.165990   4.571220
     C   5.493860   6.261510  10.193320
     C  -1.581900   1.119010   6.672980
     C   8.397620  10.087630   3.525960
     C   5.661610   5.339870   9.148060
     C  -1.749640   0.197370   7.718240
     H   7.686710   0.345580   3.272060
     H   4.950700   4.796920   8.894160
     H  -1.038730   9.939420   7.972140
     C   9.599650  10.196550   2.874020
     C   6.863640   5.230950   8.496120
     C  -2.951670   0.088450   8.370180
     H   9.677530   0.530710   2.184750
     H   6.941520   4.611790   7.806850
     H  -3.029550   9.754290   9.059450
     C   6.892860   8.092240   6.315420
     C   9.628870   7.335260   0.693320
     C  -0.244880   2.192760   4.928780
     H   7.048200   7.207730   5.976290
     H   9.784210   8.219770   0.354190
     H  -0.400220   3.077270   5.267910
     H   6.000770   8.147780   6.666690
     H   8.736790   7.279720   1.044590
     H   0.647200   2.137220   4.577510
     H   7.524190   8.282510   7.013010
     H  10.260200   7.144990   1.390910
     H  -0.876210   2.002490   4.231190
     C   5.944090   9.951770   4.980060
     C   3.208080   5.475730  10.602160
     C   0.703890   0.333230   6.264140
     H   6.235220   0.574930   5.089120
     H   3.499210   4.567570  10.711220
     H   0.412760   9.710070   6.155070
     H   5.230270   9.768690   5.595110
     H   2.494260   5.658810  11.217210
     H   1.417710   0.516310   5.649090
     N   7.050500   9.054810   5.243840
     N   4.314490   6.372690  10.865940
     N  -0.402520   1.230190   6.000350
     O  -1.134190   9.320880  11.227330
     O   1.601830   6.106620   5.605230
     O   7.782160   0.964120   0.016870
     H  -1.875710   9.668930  11.203720
     H   0.860300   5.758570   5.581620
     H   8.523690   0.616070   0.040480
     O   1.999620   9.831230   0.734810
     O  -0.736390   5.596270   6.356910
     O   4.648360   0.453770  10.509390
