31

C       3.42292269       1.77002734      -0.76572601
H       4.47969729       2.00307048      -0.62762538
H       2.91769683       2.67653161      -1.16866353
C       4.16224033       0.57588127      -2.73452660
H       3.94260251       1.35230989      -3.49609922
N       3.34409067       0.58147507      -1.55854498
H       3.00064583       1.57272388       0.22884168
H       4.06057684      -0.39925180      -3.23053725
H       5.19982794       0.67279414      -2.41585267
C       2.00156338       0.11226311      -1.87147477
H       1.96703709      -0.73968494      -2.51649004
C       0.91398817       0.48881727      -1.06915019
C      -0.22057200      -0.14640729      -0.88771427
H       0.87277802       1.28611543      -0.37001503
O      -0.78269877      -1.22872154      -2.01122846
C      -1.65530828       0.07022783      -0.74670700
C      -2.44529033      -0.82391264       0.06301385
C      -2.12803135       1.47111696      -0.77296602
O      -2.12363165      -2.08961351       0.10335797
C      -3.58048634      -0.40100672       0.73468741
C      -3.17685897       1.90023121       0.01239047
H      -1.50836429       2.20634865      -1.26422391
H      -1.41041754      -2.26928531      -0.54876180
H      -4.17897525      -1.12150796       1.26652409
C      -3.95872493       0.93736258       0.72359886
H      -3.48254477       2.94314613      -0.00540480
O      -5.06040482       1.23543273       1.39569541
C      -5.55706250       2.57728403       1.41152263
H      -5.79776746       2.90848209       0.40050680
H      -6.46332758       2.55474882       2.01276509
H      -4.83051077       3.25059118       1.86939767
