27

C   -0.018523000  -0.167594000  -8.624227000
H   -1.041859000  -0.396318000  -8.940951000
H    0.596200000  -1.072565000  -8.749918000
H    0.373154000   0.633692000  -9.260104000
N   -0.036716000   0.259407000  -7.233244000
C   -1.221106000  -0.094821000  -6.464118000
C    0.973728000   0.936608000  -6.685196000
H   -1.351330000  -1.187488000  -6.452592000
H   -1.109743000   0.264547000  -5.435025000
H   -2.108423000   0.369690000  -6.922430000
C    2.162250000   1.292265000  -7.296006000
H    0.817300000   1.228212000  -5.644838000
H    2.369255000   0.972216000  -8.311599000
C    3.125938000   2.084530000  -6.606786000
C    4.424405000   2.421374000  -7.235977000
O    2.901988000   2.549157000  -5.421988000
C    5.310019000   3.316548000  -6.558221000
C    4.845380000   1.888840000  -8.471795000
H    4.044833000   3.394053000  -5.171782000
C    6.553187000   3.642642000  -7.123008000
O    4.969374000   3.862250000  -5.373442000
C    6.080774000   2.208877000  -9.018501000
H    4.195278000   1.208760000  -9.016695000
C    6.933539000   3.089708000  -8.338279000
H    7.193340000   4.339668000  -6.580197000
H    6.390400000   1.774510000  -9.968770000
H    7.902810000   3.334553000  -8.776421000
