108
2hp_4_222-opt.xyz
     C   0.509142   8.108836   3.507692
     C  -0.776644   8.488928   4.148442
     C   0.888972   8.535418   2.218108
     C   1.419079   7.278900   4.234291
     C   7.285317   9.185746   3.419678
     C   2.658741   6.917928   3.676452
     C   3.016000   7.349271   2.403985
     C   6.090173   9.523984   4.031490
     C   2.110500   8.150638   1.707572
     C   5.055370   0.132457   2.056807
     H   5.826829   0.893386   1.841627
     H   4.074984   0.547248   1.793621
     H   5.241711   9.639602   1.425622
     C   3.861309   0.080078   4.238125
     H   3.964789  10.072992   5.257234
     H   2.976953  10.017776   3.759389
     H   3.722905   1.172917   4.286903
     F   2.452545   8.598729   0.444894
     N   5.054911  10.146167   3.468407
     O   1.104738   6.836690   5.464241
     H   0.187275   7.330189   5.659002
     O  -0.939743   8.149338   5.383541
     H   0.249398   9.166485   1.602728
     H   7.453878   9.427144   2.374427
     H   5.957885   9.257695   5.083261
     H   3.974051   7.086286   1.947809
     H   3.337121   6.302365   4.273790
     C   3.409464   3.293928   1.320488
     C   6.042294   1.901072   6.789428
     C   1.856186   7.096072   9.617382
     C   2.123678   2.913836   1.961248
     C   4.756508   2.281164   7.430178
     C   3.141972   7.476164   8.976632
     C   1.743858   3.340418   3.250832
     C   4.376688   1.854582   8.719762
     C   3.521792   7.049582   7.687048
     C   1.213751   2.083900   1.234649
     C   3.846571   3.111100   6.703579
     C   4.051909   8.306100   9.703231
     C   4.415713   3.990746   2.049252
     C  -2.019667   1.204254   7.518192
     C   0.849937   6.399254   8.888618
     C  -0.025911   1.722928   1.792488
     C   2.606919   3.472072   7.261418
     C   5.291561   8.667072   9.145382
     C  -0.383180   2.154271   3.064955
     C   2.249650   3.040729   8.533895
     C   5.648830   8.235729   7.872915
     C   5.610857   4.328984   1.437450
     C  -0.824523   0.866016   6.906380
     C  -0.345207   6.061016   9.500430
     C   0.522320   2.955638   3.761358
     C   3.155150   2.239362   9.230298
     C   4.743330   7.434362   7.176512
     C   6.645660   5.327457   3.412133
     C   0.210280  10.257543   8.881063
     C  -1.380010   5.062543   7.525737
     H   5.874191   6.088386   3.627303
     H  -0.561179   9.496614   9.096243
     H  -0.608541   4.301614   7.310567
     H   7.626046   5.742248   3.675309
     H   1.190666   9.842752   9.144249
     H  -2.360396   4.647752   7.262561
     H   6.459319   4.444602   4.043318
     H   0.023939   0.750398   9.512248
     H  -1.193669   5.945398   6.894552
     C   7.839721   5.275078   1.230815
     C   1.404341  10.309922   6.699745
     C  -2.574071   5.114922   9.707055
     H   7.736241   4.877992   0.211696
     H   1.300861   0.317008   5.680636
     H  -2.470591   5.512008  10.726174
     H  -0.344133   4.822776   1.709551
     H   2.288697   0.372224   7.178481
     H   5.609783   5.567224   9.228319
     H   7.978115   6.367917   1.182027
     H   1.542745   9.217083   6.650967
     H  -2.712465   4.022083   9.755843
     F   0.180285   3.403729   5.024036
     F   2.813105   1.791271  10.492976
     F   5.085365   6.986271   5.913834
     N   6.646109   4.951167   2.000533
     N   0.210739   0.243833   7.469463
     N  -1.380459   5.438833   8.937337
     O   1.528092   1.641690   0.004699
     O   4.160912   3.553310   5.473629
     O   3.737558   8.748310  10.933171
     H  -1.357005   2.135189  10.747798
     H   5.078375   3.059811   5.278868
     H   6.622655   8.254811   0.190072
     O   3.572563   2.954338   0.085399
     O   6.205393   2.240662   5.554329
     O   1.693087   7.435662  10.852481
     H   2.383432   3.971485   3.866212
     H   5.016252   1.223515   9.335142
     H   2.882218   6.418515   7.071668
     H   4.247142   4.232144   3.094503
     H  -2.188228   0.962856   8.563443
     H   1.018508   6.157856   7.843367
     H   5.743145   4.062695   0.385669
     H  -0.692235   1.132305   5.854609
     H  -0.477495   6.327305  10.552201
     H  -1.341221   1.891286   3.521131
     H   1.291609   3.303714   8.990061
     H   6.606871   8.498714   7.416739
     H   8.363909   1.107365   1.195150
     H   1.928529   4.087635   6.664080
     H  -3.098259   9.282635   9.742720
