108
?
C          0.50569        8.11511        3.51576
C         -0.78590        8.50515        4.14753
C          0.88077        8.55326        2.23942
C          1.40104        7.28058        4.21469
C          7.29332        9.18424        3.39894
C          2.62017        6.91652        3.63772
C          2.97088        7.36319        2.38632
C          6.11079        9.53885        3.99637
C          2.08874        8.16966        1.71746
C          5.06411        0.13299        2.05162
H          5.74293        0.79380        1.89881
H          4.20558        0.49768        1.82662
H          5.23818        9.75413        1.50396
C          3.88667        0.06857        4.23077
H          3.98597       10.10843        5.11892
H          3.11270       10.06999        3.81732
H          3.78153        1.02238        4.27233
F          2.43428        8.61508        0.47809
N          5.07291       10.13513        3.44423
O          1.10989        6.82363        5.44892
H          0.37619        7.10676        5.67894
O         -0.96009        8.19490        5.36251
H          0.31032        9.11411        1.66365
H          7.45160        9.36970        2.51899
H          6.01660        9.36243        4.86516
H          3.80533        7.14105        2.01804
H          3.20436        6.38985        4.16405
C          3.41872        3.31015        1.32140
C          6.05155        1.88485        6.79034
C          1.84693        7.07985        9.61647
C          2.12713        2.92011        1.95318
C          4.75996        2.27489        7.42211
C          3.13852        7.46989        8.98470
C          1.75206        3.35826        3.22952
C          4.38489        1.83674        8.69845
C          3.51359        7.03174        7.70836
C          1.23179        2.08558        1.25425
C          3.86461        3.10942        6.72318
C          4.03387        8.30442        9.68363
C          4.40771        3.98924        2.06999
C         -2.02767        1.20576        7.53893
C          0.85794        6.40076        8.86788
C          0.01266        1.72152        1.83122
C          2.64549        3.47348        7.30015
C          5.25299        8.66848        9.10665
C         -0.33806        2.16819        3.08262
C          2.29477        3.02681        8.55156
C          5.60371        8.22181        7.85525
C          5.59024        4.34385        1.47257
C         -0.84514        0.85115        6.94150
C         -0.32459        6.04615        9.46531
C          0.54408        2.97466        3.75147
C          3.17691        2.22034        9.22041
C          4.72157        7.41534        7.18640
C          6.63692        5.32799        3.41732
C          0.20154       10.25701        8.88625
C         -1.37127        5.06201        7.52055
H          5.95809        5.98880        3.57012
H         -0.47728        9.59620        9.03906
H         -0.69244        4.40120        7.36775
H          7.49545        5.69268        3.64231
H          1.06007        9.89232        9.11125
H         -2.22980        4.69732        7.29556
H          6.46285        4.55913        3.96498
H          0.02747        0.63587        9.43391
H         -1.19720        5.83087        6.97289
C          7.81436        5.26357        1.23817
C          1.37898       10.32143        6.70710
C         -2.54871        5.12643        9.69970
H          7.71506        4.91343        0.35001
H          1.27968        0.28157        5.81895
H         -2.44941        5.47657       10.58786
H         -0.47988        4.87499        1.65162
H          2.15295        0.32001        7.12055
H          5.74553        5.51501        9.28625
H          7.91949        6.21738        1.19660
H          1.48412        9.36762        6.66554
H         -2.65384        4.17262        9.74127
F          0.19855        3.42008        4.99084
F          2.83137        1.77492       10.45978
F          5.06710        6.96992        5.94703
N          6.62811        4.94013        2.02471
N          0.19274        0.25487        7.49364
N         -1.36246        5.44987        8.91316
O          1.52294        1.62863        0.02002
O          4.15576        3.56637        5.48895
O          3.74271        8.76137       10.91785
H         -1.54592        1.91176       10.72786
H          4.88946        3.28324        5.25893
H          6.81157        8.47824        0.21001
O          3.59291        2.99990        0.10643
O          6.22574        2.19510        5.57536
O          1.67274        7.39010       10.83145
H          2.32251        3.91911        3.80529
H          4.95533        1.27589        9.27422
H          2.94314        6.47089        7.13259
H          4.24942        4.17470        2.94994
H         -2.18595        1.02030        8.41888
H          1.01623        6.21530        7.98793
H          5.68443        4.16743        0.60377
H         -0.75095        1.02757        6.07271
H         -0.41878        6.22257       10.33410
H         -1.17250        1.94605        3.45090
H          1.46033        3.24895        8.91983
H          6.43815        8.44395        7.48697
H          8.49667        1.19485        1.30489
H          2.06129        4.00015        6.77382
H         -3.23102        9.19515        9.63298
