54
4cell_dimer_0.xyz
     C   0.505692   8.115110   3.515760
     C  -0.785895   8.505150   4.147532
     C   0.880765   8.553256   2.239420
     C   1.401041   7.280585   4.214690
     O  -0.960085   8.194905   5.362510
     C  -1.774884   9.184240   3.398943
     C   2.088743   8.169658   1.717465
     H   0.310316   9.114108   1.663650
     C   2.620165   6.916519   3.637717
     O   1.109888   6.823633   5.448919
     H  -1.616599   9.369702   2.518992
     C  -2.957411   9.538851   3.996370
     C   2.970881   7.363185   2.386315
     F   2.434278   8.615076   0.478094
     H   3.204356   6.389850   4.164047
     H   0.376194   7.106761   5.678943
     N  -3.995287  10.135134   3.444226
     H  -3.051604   9.362429   4.865165
     H   3.805325   7.141047   2.018037
     C  -4.004094  10.522992   2.051616
     C  -5.181534  10.458574   4.230768
     H  -3.830023   9.754132   1.503957
     H  -3.325266  11.183797   1.898814
     H  -4.862620  10.887681   1.826624
     H  -5.955499  10.069988   3.817317
     H  -5.082232  10.108431   5.118924
     H  -5.286665  11.412376   4.272332
     C   3.138518   7.469891   8.984695
     C   1.846931   7.079850   9.616467
     C   3.513591   7.031744   7.708355
     C   4.033866   8.304416   9.683625
     C   0.857942   6.400760   8.867879
     O   1.672740   7.390095  10.831446
     C   4.721569   7.415343   7.186399
     H   2.943141   6.470892   7.132586
     C   5.252992   8.668481   9.106652
     O   3.742714   8.761368  10.917855
     C  -0.324585   6.046149   9.465305
     H   1.016227   6.215299   7.987927
     C   5.603706   8.221815   7.855251
     F   5.067104   6.969924   5.947030
     H   5.837182   9.195150   9.632983
     H   3.009019   8.478240  11.147879
     N  -1.362462   5.449867   8.913162
     H  -0.418778   6.222571  10.334101
     H   6.438151   8.443953   7.486972
     C  -1.371268   5.062008   7.520552
     C  -2.548708   5.126426   9.699704
     H  -0.692441   4.401204   7.367750
     H  -2.229795   4.697320   7.295560
     H  -1.197197   5.830868   6.972893
     H  -2.449406   5.476570  10.587859
     H  -2.653839   4.172624   9.741267
     H  -3.322673   5.515012   9.286252
