54
4cell_dimer_2.xyz
     C   0.505692   8.115110   3.515760
     C  -0.785895   8.505150   4.147532
     C   0.880765   8.553256   2.239420
     C   1.401041   7.280585   4.214690
     O  -0.960085   8.194905   5.362510
     C  -1.774884   9.184240   3.398943
     C   2.088743   8.169658   1.717465
     H   0.310316   9.114108   1.663650
     C   2.620165   6.916519   3.637717
     O   1.109888   6.823633   5.448919
     H  -1.616599   9.369702   2.518992
     C  -2.957411   9.538851   3.996370
     C   2.970881   7.363185   2.386315
     F   2.434278   8.615076   0.478094
     H   3.204356   6.389850   4.164047
     H   0.376194   7.106761   5.678943
     N  -3.995287  10.135134   3.444226
     H  -3.051604   9.362429   4.865165
     H   3.805325   7.141047   2.018037
     C  -4.004094  10.522992   2.051616
     C  -5.181534  10.458574   4.230768
     H  -3.830023   9.754132   1.503957
     H  -3.325266  11.183797   1.898814
     H  -4.862620  10.887681   1.826624
     H  -5.955499  10.069988   3.817317
     H  -5.082232  10.108431   5.118924
     H  -5.286665  11.412376   4.272332
     H  -0.479875   4.874989   1.651618
     C  -1.253841   5.263575   1.238167
     H  -1.353143   4.913430   0.350012
     H  -1.148710   6.217376   1.196603
     N  -2.440088   4.940134   2.024709
     C  -3.477964   4.343851   1.472566
     C  -2.431280   5.327992   3.417319
     C  -4.660490   3.989241   2.069992
     H  -3.383771   4.167428   0.603771
     H  -3.110108   5.988797   3.570121
     H  -1.572754   5.692681   3.642311
     H  -2.605352   4.559132   3.964978
     C  -5.649480   3.310149   1.321404
     H  -4.818776   4.174701   2.949944
     O  -5.475289   2.999905   0.106426
     C  -6.941067   2.920109   1.953176
     C  -7.836415   2.085586   1.254246
     C  -7.316140   3.358256   3.229516
     O  -7.545263   1.628632   0.020016
     C  -9.055540   1.721519   1.831218
     C  -8.524118   2.974657   3.751471
     H  -6.745690   3.919108   3.805285
     H  -6.811568   1.911760  -0.210008
     H  -9.639730   1.194850   1.304888
     C  -9.406255   2.168184   3.082620
     F  -8.869653   3.420076   4.990841
     H -10.240700   1.946047   3.450898
