54
symmetry c1
C        9.467207000      2.424439000      3.544461000
C        8.155126000      2.070967000      4.158769000
C       10.336436000      3.295495000      4.226761000
C        9.896170000      1.913378000      2.312501000
C        7.208229000      1.294170000      3.443876000
O        7.912238000      2.503024000      5.324355000
C       11.584305000      3.611727000      3.689188000
O        9.992177000      3.848953000      5.406054000
H        9.268451000      3.548396000      5.647697000
C       11.127325000      2.243600000      1.787772000
H        9.338838000      1.339196000      1.839036000
C        6.031561000      0.936385000      4.047283000
H        7.385039000      1.028856000      2.569686000
C       11.968414000      3.087515000      2.480540000
H       12.157612000      4.179596000      4.151861000
H       11.390398000      1.896756000      0.965926000
H        5.929588000      1.201384000      4.933236000
N        5.025329000      0.261738000      3.526114000
H       12.801178000      3.303280000      2.127195000
C        5.036006000     -0.187151000      2.151694000
C        3.843738000     -0.061121000      4.326484000
H        5.401543000      0.502856000      1.592968000
H        4.138578000     -0.383980000      1.872493000
H        5.574460000     -0.978360000      2.077549000
H        3.957830000      0.278780000      5.217078000
H        3.729849000     -1.014129000      4.359076000
H        3.067854000      0.340848000      3.928457000
C       12.011662000      2.835561000      8.940695000
C       10.699581000      3.189033000      9.555001000
C       12.880891000      1.964505000      9.622993000
C       12.440624000      3.346622000      7.708734000
C        9.752684000      3.965830000      8.840109000
O       10.456694000      2.756977000     10.720588000
C       14.128759000      1.648274000      9.085422000
O       12.536632000      1.411048000     10.802287000
H       11.812906000      1.711604000     11.043929000
C       13.671781000      3.016400000      7.184005000
H       11.883292000      3.920804000      7.235269000
C        8.576015000      4.323615000      9.443515000
H        9.929493000      4.231144000      7.965919000
C       14.512870000      2.172485000      7.876772000
H       14.702066000      1.080404000      9.548094000
H       13.934852000      3.363244000      6.362158000
H        8.474043000      4.058616000     10.329469000
N        7.569783000      4.998263000      8.922347000
H       15.345633000      1.956720000      7.523427000
C        7.580461000      5.447151000      7.547927000
C        6.388193000      5.321122000      9.722715000
H        8.118914000      6.238360000      7.473782000
H        6.683033000      5.643980000      7.268725000
H        7.945997000      4.757144000      6.989201000
H        6.502285000      4.981220000     10.613310000
H        5.612309000      4.919152000      9.324690000
H        6.274303000      6.274128000      9.755310000
