54
dim_out.xyz
     O  -4.903268   6.671048   5.386412
     C  -5.247527   7.224505   6.565704
     H  -4.179542   6.971604   5.144768
     C  -4.378297   8.095561   7.248003
     C  -6.495395   6.908274   7.103277
     C  -3.066216   8.449033   6.633697
     C  -4.807260   8.606623   8.479963
     H  -7.068703   6.340404   6.640604
     C  -6.879505   7.432486   8.311925
     C  -2.119319   9.225830   7.348589
     O  -2.823329   8.016976   5.468110
     C  -6.038416   8.276400   9.004693
     H  -4.249928   9.180804   8.953429
     H  -7.712269   7.216720   8.665271
     H  -2.296129   9.491144   8.222779
     C  -0.942651   9.583615   6.745183
     H  -6.301488   8.623244   9.826539
     N   0.063581  10.258263   7.266351
     H  -0.840679   9.318617   5.859229
     C   1.245171  10.581121   6.465982
     C   0.052904  10.707151   8.640771
     H   1.131079  10.241220   5.575387
     H   2.021055  10.179152   6.864008
     H   1.359061  11.534128   6.433388
     H  -0.312633  10.017144   9.199497
     H   0.950331  10.903980   8.919972
     H  -0.485550  11.498361   8.714915
     H  16.514225   5.538780   0.179155
     C  16.628319   5.198879   1.069749
     H  16.742207   4.245872   1.037156
     H  17.404202   5.600848   1.467775
     N  15.446727   5.521738   1.870118
     C  14.440495   6.196385   1.348950
     C  15.436050   5.072850   3.244539
     C  13.263826   6.554171   1.952357
     H  14.542467   6.461384   0.462997
     H  16.333477   4.876020   3.523740
     H  14.897596   4.281640   3.318683
     H  15.070513   5.762856   3.803265
     C  12.316930   7.330968   1.237464
     H  13.087017   6.288857   2.826547
     C  11.004848   7.684439   1.851771
     O  12.559817   7.763024   0.071878
     C  10.135619   8.555495   1.169472
     C  10.575886   7.173378   3.083731
     C   8.887751   8.871727   1.707044
     O  10.479878   9.108953  -0.009821
     C   9.344730   7.503601   3.608461
     H  11.133217   6.599196   3.557197
     H   8.314445   9.439596   1.244371
     C   8.503640   8.347515   2.915693
     H  11.203605   8.808396  -0.251464
     H   9.081658   7.156756   4.430307
     H   7.670877   8.563280   3.269038
