37

C       5.53360726       2.29738519       4.68224587
C       4.30683978       1.58507536       4.30538745
H       3.92069717       0.86968211       5.01868589
C       3.71183537       1.83244189       3.12864978
H       2.79401060       1.33567855       2.84779195
C       4.28962187       2.78761379       2.21576822
H       3.77620730       2.97272293       1.27796778
C       5.44852855       3.45661421       2.50115686
H       5.85212554       4.16981963       1.79277534
C       6.10105553       3.27868341       3.72197168
C       7.28464672       4.03760710       4.12223932
C       8.51328842       3.83329890       3.33192154
H       8.83275301       2.79201556       3.27392656
C       9.24712461       4.77976107       2.77048167
H       8.92133475       5.81715441       2.82873773
C      10.57159594       4.55278503       2.10870311
C      10.78601422       3.49751420       1.23252816
H       9.96744335       2.82441204       0.99445434
C      12.03219847       3.26341643       0.65389492
H      12.13438247       2.41593354      -0.01074321
C      13.11836413       4.11116223       0.90650631
C      12.89565364       5.18802563       1.77423393
H      13.69052174       5.88266746       2.01110751
C      11.64754657       5.39046988       2.35996746
H      11.52222323       6.23756399       3.03032395
C      14.65734148       2.56126218      -0.17107209
H      14.63236341       1.81459185       0.63900435
H      15.65054733       2.54956496      -0.62082503
H      13.95255497       2.25050884      -0.94502329
C      15.50215647       4.60750468       0.85943857
H      15.36204213       5.68915322       0.79950500
H      16.39221794       4.36742242       0.27752223
H      15.69373746       4.34211235       1.91189911
N      14.36719191       3.90580199       0.29189342
O       6.07420820       2.08557433       5.75518446
H       7.66846001       5.80566639       4.75249857
O       6.89893844       5.36054227       4.39345058
