40

H       1.94195878      16.46815699       4.64719407
H       1.84419112      17.23767302       6.97502222
C       1.52644480      17.31206817       4.11324145
C       2.73714265      17.77370972       6.61618661
C       1.68691299      18.61966826       4.59269426
C       0.84407381      17.06518963       2.92913052
N       2.42817983      18.88675951       5.74500532
H       3.37865541      17.05220471       6.10238786
H       3.28723810      18.14322190       7.48005602
C       1.09085245      19.64966309       3.84967836
C       0.27801306      18.08727476       2.17593163
H       0.74839064      16.04226138       2.57639973
C       2.29061014      20.19392127       6.35002013
C       0.40908331      19.38146434       2.67058242
H       1.15495264      20.67937126       4.17553490
C      -0.41002925      17.76382860       0.91830512
H       2.65278053      20.97014441       5.66998654
H       1.25349973      20.44138969       6.62653134
H       2.90573295      20.23343702       7.24797695
H      -0.02802389      20.21639551       2.13242833
H      -0.53145238      16.71227742       0.69024903
C      -0.90270124      18.68747686       0.05695932
C      -1.61528963      18.46744999      -1.09577046
H      -0.82654323      19.75251907       0.26794645
C      -2.24232687      19.05450689      -2.22530740
O      -1.97963576      17.50131614      -1.98475054
C      -1.42495131      19.58215935      -3.30265579
C      -3.59558227      19.56087227      -2.08724003
C      -1.91337815      20.60474995      -4.10702696
O      -0.18428534      19.16254161      -3.50242594
C      -4.01504457      20.55995576      -2.88768105
H      -4.18748609      19.20199562      -1.25302518
H      -1.26846974      21.00040270      -4.87732317
C      -3.18941211      21.09214760      -3.93276343
H       0.02453536      18.42856598      -2.91333215
H      -4.99385465      20.98525854      -2.73629344
C      -3.74557927      22.14931690      -4.84268422
H      -4.68335609      21.80386370      -5.28550747
H      -3.97974821      23.06087142      -4.28673460
H      -3.06000824      22.40768904      -5.65139678
