41

C       0.55440277      -0.22297237       5.32521817
C       0.10327041      -0.30385134       4.06085647
C      -0.71702228       0.76376337       3.52827735
C      -0.96337839       1.94483648       4.35410778
C      -0.47821596       1.98060258       5.70012546
H      -0.68098942       2.85343918       6.30538210
C       0.26805924       0.95534062       6.14628585
H       0.68263008       0.97588001       7.14775923
C      -1.28159642       0.83616665       2.24813829
C      -0.88459695       0.65419328       0.90544840
H       0.15899691       0.93643784       0.78133379
C      -1.61659658       0.25501630      -0.14783371
H      -2.66766197       0.01962072      -0.00398728
C      -1.06974839       0.07345114      -1.52257019
C      -1.90776264       0.06218935      -2.63177295
H      -2.96455003       0.28419440      -2.50282467
C      -1.43766321      -0.23099551      -3.90971408
H      -2.16043643      -0.25188010      -4.71111740
C      -0.08885548      -0.53666686      -4.14433804
C      -0.53814780      -0.83265496      -6.52556445
H      -0.74075916       0.20509232      -6.83203651
H      -1.49139861      -1.30461870      -6.28984440
H      -1.70133425       2.81857386       2.90209375
O      -2.34431545       0.40643092       3.04086275
O      -1.49477748       3.02121376       3.84626839
O       1.29756860      -1.12457282       5.96155477
H       0.27742856      -1.15659251       3.42349391
C       0.28318601      -0.14872523      -1.76853382
N       0.35723643      -0.95761899      -5.39994790
C       0.77369463      -0.42645657      -3.04243341
H      -0.12009688      -1.36687493      -7.37697517
C       1.66102303      -2.29198119       5.23394582
H       0.98899321      -0.13054230      -0.94169572
C       1.77318299      -1.01843677      -5.67871894
H       1.83574819      -0.60701726      -3.14653711
H       0.77847631      -2.88296080       4.98334654
H       2.20197494      -2.02234886       4.32527685
H       2.30933140      -2.85942712       5.88907369
H       2.28338871      -1.64953015      -4.95117863
H       1.91889554      -1.48473043      -6.65091401
H       2.28962592      -0.04697735      -5.69604062
