216
2hp_2_k846-opt.xyz
     C   0.261517   4.050127   0.811160
     H   1.286833   3.717079   0.563623
     H   7.289196   3.721550   0.007919
     H  -0.059815   3.578267   1.749863
     C   4.149868   6.209846  11.850480
     H   4.139607   7.289642  12.039241
     H   3.138721   5.869066  11.570949
     H  -2.879136   5.991186  11.003262
     C   3.047574   6.286916   7.726059
     H   3.534352   6.952770   8.441543
     C   2.189840   4.071672   7.143848
     H   1.969254   3.049484   7.451958
     C   2.633227   6.775498   6.475186
     F   3.199892   4.491809   9.253681
     C   0.617094   6.164758   1.999155
     H   0.583439   7.255302   1.916064
     C   1.798983   4.564297   5.905478
     H   1.269384   3.886069   5.238097
     N   0.201487   5.504909   0.916476
     C   1.582578   6.461956   4.219453
     C   1.093579   5.617780   3.179705
     H   1.130357   4.538063   3.304760
     O   2.814705   8.074353   6.198487
     H   2.344259   8.171262   5.250035
     O   1.678535   7.738891   4.068086
     C   2.014177   5.901367   5.523728
     C   3.173727  12.975339   2.684511
     H   4.016486  13.087586   1.982362
     H   3.462633  13.372956   3.666542
     H   2.313741  13.550731   2.305379
     C   3.066717  10.953915   4.124274
     H   2.730560   9.912268   4.094450
     H   2.524709  11.502022   4.914416
     H   4.144656  10.988047   4.359239
     C   5.103341  11.766932   7.674051
     C  -1.832370  12.289358   9.863254
     H  -1.473034  13.033434  10.574300
     C  -2.123798  12.719365   8.574866
     H  -2.004816  13.763654   8.281173
     C   2.324617  10.871669   1.805567
     H   2.065237   9.834407   2.038284
     C   4.916913  10.436164   7.993280
     H   4.522113   9.724543   7.263975
     C  -2.507174  10.023569   9.308110
     C  -2.008931  10.954625  10.274935
     N   2.816311  11.572080   2.828701
     C  -1.745131  10.476555  11.651881
     O   4.979492   8.741366   9.645888
     H  -2.467594   8.733816  10.685538
     F   4.792703  12.166470   6.393373
     O  -2.016367   9.237197  11.912567
     C   2.813744   4.958999   8.017382
     C   2.106870  11.336348   0.521136
     H   2.356875  12.362777   0.265331
     C   5.786213  15.109627   5.253400
     C   4.130553  18.068873  11.317960
     C  -1.394143   7.009373   6.875720
     H   4.760907  14.776579   5.500937
     H   3.105247  18.401921  11.565497
     H  -0.368837   7.342421   6.628183
     H  -1.241456  14.781050   6.056641
     H  -2.897116  18.397450  12.121201
     H   5.633526   7.337950   6.072469
     H   6.107555  14.637767   4.314697
     H   4.451895  18.540733  10.379257
     H  -1.715485   7.481233   7.814423
     C  -1.413458  17.269346   6.343200
     C   0.242212  15.909154   0.278640
     C   5.805528   4.849654   5.785920
     H  -1.403197  18.349142   6.154429
     H   0.252463  14.829358   0.089869
     H   5.795267   3.769858   5.974691
     H  -0.402311  16.928566   6.622721
     H   1.253349  16.249934   0.558161
     H   4.794391   5.190434   5.506389
     H   5.615546  17.050686   7.190408
     H   7.271206  16.127814   1.125848
     H  -1.223466   5.068314   4.938712
     C  -0.311164  17.346416  10.467621
     C   1.344496  15.832084   4.403061
     C   4.703234   4.772584   1.661499
     H  -0.797942  18.012270   9.752127
     H   0.857718  15.166230   3.687577
     H   5.190022   4.106730   2.376983
     C   0.546580  15.131172  11.049822
     C   2.202240  18.047328   4.985262
     C   3.845500   6.987828   1.079298
     H   0.767156  14.108984  10.741712
     H   2.422826  19.069516   4.677162
     H   3.624914   8.010016   1.387398
     C   0.103183  17.834998  11.718484
     C   1.758853  15.343502   5.653934
     C   4.288887   4.284002   0.410626
     F  -0.463482  15.551309   8.939999
     F   1.192178  17.627191   2.875439
     F   4.855562   6.567691   3.189121
     C   5.430636  17.224258   4.065405
     C   3.774976  15.954242  10.129955
     C  -1.038566   4.894742   8.063715
     H   5.464291  18.314802   4.148496
     H   3.808631  14.863698  10.213056
     H  -1.072221   3.804198   7.980624
     H   3.523021   0.442522   1.150134
     H   1.867361  10.616978   7.214694
     H   0.869049  21.676478  10.978976
     C   4.248757  15.623797   0.159082
     C   2.593097  17.554703   6.223642
     C   0.143313   6.495203  11.970028
     H   4.778356  14.945569   0.826463
     H   3.122696  18.232931   6.891023
     H  -0.386286   7.173431  11.302647
     N   5.846253  16.564409   5.148074
     N   4.190593  16.614091  11.212634
     N  -1.454183   5.554591   6.981036
     C   4.465162  17.521456   1.845107
     C   2.809502  15.657044   7.909657
     C  -0.073092   4.597544  10.284013
     C   4.954161  16.677280   2.884855
     C   3.298491  16.501220   8.949405
     C  -0.562081   5.441720   9.244265
     H   4.917383  15.597563   2.759800
     H   3.261723  17.580937   8.824350
     H  -0.525313   6.521437   9.369320
     O  -0.078295  19.133853  11.995183
     O   1.577365  14.044647   5.930623
     O   4.470365   2.985147   0.133937
     H   3.703481  19.230762   0.814525
     H   2.047821  13.947738   6.879075
     H   0.688599   2.888238  11.314595
     O   4.369205  18.798391   1.996474
     O   2.713545  14.380109   8.061034
     O   0.022865   3.320609  10.132646
     C   4.033553  16.960867   0.540832
     C   2.377893  16.217633   6.605392
     C   0.358517   5.158133  11.588288
     C   2.874003   1.915839   3.380049
     C   1.218343   9.143661   9.444609
     C   1.518067  20.203161   8.749071
     H   2.031244   2.028086   4.082198
     H   0.375584   9.031414  10.146758
     H   2.360826  20.090914   8.046922
     H   2.585107   2.313456   2.398018
     H   0.929447   8.746044   8.462578
     H   1.806973  19.805544   9.731102
     H   3.733999   2.491231   3.759171
     H   2.078339   8.568269   9.823731
     H   0.658081  19.627769   8.369939
     C   2.981013  22.013415   1.940286
     C   1.325353  11.165085   8.004846
     C   1.411057   0.105585  10.188824
     H   3.317180  20.971768   1.970100
     H   1.661520  12.206732   8.034660
     H   1.074890   1.147232  10.159010
     H   1.903084  22.047547   1.705321
     H   0.247424  11.130953   7.769871
     H   2.488986   0.071453  10.423799
     C  -2.366931   0.707432  10.519629
     C  -0.711271  10.352068   4.455069
     C   6.759001  21.411568   1.609491
     C   4.568780   1.229858   8.330426
     C   6.224440   9.829642   2.265866
     C  -0.176700  20.889142   3.798694
     H   4.209444   1.973934   7.619370
     H   5.865104   9.085566   1.554810
     H   0.182626  20.145066   4.509740
     C   4.860208   1.659865   9.618804
     C   6.515878   9.399635   3.554244
     C  -0.468138  20.459135   2.510306
     H   4.741236   2.704154   9.912497
     H   6.396896   8.355346   3.847937
     H  -0.349156  19.414846   2.216623
     C   3.723123  21.931169   4.258993
     C   2.067453  11.247331  10.323543
     C   0.668957   0.187831   7.870127
     H   3.982493  20.893907   4.026276
     H   2.326833  12.284593  10.090836
     H   0.409577   1.225093   8.102834
     C  -2.180503  21.495664  10.200390
     C  -0.524843  11.682836   4.135830
     C   6.572583   0.623336   1.928720
     H  -1.785703  20.784043  10.929695
     H  -0.130043  12.394457   4.865135
     H   6.177773   1.334957   1.199425
     C   5.243584  21.083069   8.885560
     C   6.899254  12.095431   2.821000
     C  -0.851514   1.035931   3.243550
     C   4.745341  22.014125   7.918745
     C   6.401011  11.164375   1.854185
     C  -0.353271   0.104875   4.210375
     N   3.231429   0.512580   3.235859
     N   1.575769  10.546920   9.300419
     N   1.160641  21.606420   8.893261
     C   4.481541  21.536055   6.541789
     C   6.137201  11.642445   0.477239
     C  -0.089461   0.582945   5.587321
     O  -2.243082  19.800866   8.547792
     O  -0.587422  13.377634   2.483232
     O   6.635152   2.318134   3.581328
     H   5.204004  19.793316   7.508132
     H   6.859664  13.385184   1.443572
     H  -0.811924   2.325684   4.620978
     F  -2.056293   1.106970  11.800307
     F  -0.400633   9.952530   5.735747
     F   6.448363  21.012030   0.328813
     O   4.752777  20.296697   6.281103
     O   6.408437  12.881803   0.216543
     O  -0.360697   1.822303   5.848017
     C  -0.077324  16.018499  10.176298
     C   1.578336  17.160001   4.111738
     C   4.469404   6.100501   1.952822
     C   3.940870   0.276848   5.543414
     C   2.285210  10.782652  11.607974
     C   0.451210  21.842152   6.585696
     H   3.690865   1.303277   5.799229
     H   2.035205   9.756223  11.863779
     H   0.701205  20.815723   6.329891
