148
?
C          1.41363        4.28848       12.10484
C          2.38988        3.32890       12.34956
H          2.24171        2.67802       12.99729
C          3.55939        3.33124       11.65292
H          4.21318        2.68976       11.81459
C          3.74933        4.30550       10.70409
C          2.82201        5.25921       10.43180
H          2.99283        0.03169        9.77998
C          1.61839        5.27975       11.12435
C          0.56255        0.40379       10.85153
C          0.74086        1.43321        9.84756
H          1.52640        1.45610        9.35136
C         -0.20405        2.35053        9.62347
H         -0.96472        2.28363       10.15347
C         -0.20075        3.43219        8.66664
C          0.87639        3.74677        7.83430
H          1.65513        3.24145        7.89477
C          0.82340        4.77619        6.93224
H          1.56643        4.95754        6.40261
C         -0.33051        5.56205        6.79050
C         -1.42461        5.24395        7.60434
H         -2.21387        5.72990        7.52662
C         -1.34380        4.22392        8.51333
H         -2.08110        4.05020        9.05257
C          0.75351        1.13096        5.11177
H          1.40831        1.52183        5.69476
H          0.48204        1.77772        4.45693
H          1.13415        0.36799        4.67035
C         -1.57253        1.54120        5.76306
H         11.56357        0.98247        5.66631
H         -1.48771        2.10638        4.99225
H         -1.66731        2.08467        6.54844
F          4.91989        4.30491       10.01368
N         -0.39578        0.71602        5.88720
O          0.28955        4.23977       12.83812
H         -0.22835        4.82314       12.58468
O         -0.49975        0.33629       11.50353
C          4.45819        1.35398       14.57269
C          7.13792        1.58052        5.68018
C          4.09335        4.51502        3.21233
C          3.48194        0.39440       14.32797
C          6.16166        2.54010        5.43546
C          5.06961        5.47460        3.45705
H          3.63011        5.61252       13.68024
H          6.30984        3.19098        4.78773
H          4.92144        0.25648        4.10478
C          2.31243        0.39674       15.02461
C          4.99215        2.53776        6.13210
C          6.23912        5.47226        2.76041
H          1.65864        5.62426       14.86294
H          4.33836        3.17924        5.97043
H          6.89291        0.24474        2.92208
C          2.12248        1.37100       15.97344
C          4.80221        1.56350        7.08093
C          6.42906        4.49800        1.81158
C          3.04981        2.32471       16.24572
C          5.72954        0.60979        7.35322
C          5.50173        3.54429        1.53929
H          2.87899        2.96619       16.89755
H          5.55871        5.83731        8.00504
H          5.67256        2.90281        0.88747
C          4.25343        2.34525       15.55318
C          6.93315        0.58925        6.66067
C          4.29812        3.52375        2.23184
C          5.30927        3.33829       15.82600
C          7.98900        5.46521        6.93349
C          3.24228        2.53071        1.95902
C          5.13095        4.36771       16.82996
C          7.81068        4.43579        7.93745
C          3.42059        1.50129        0.95506
H          4.34541        4.39060       17.32616
H          7.02514        4.41290        8.43366
H          4.20613        1.47840        0.45885
C          6.07587        5.28503       17.05405
C          8.75559        3.51847        8.16154
C          2.47568        0.58397        0.73096
H          6.83653        5.21813       16.52406
H          9.51626        3.58537        7.63155
H          1.71501        0.65087        1.26096
C         11.43202        0.49769        0.22587
C          8.75229        2.43681        9.11838
C         -2.88047        5.37131       17.55915
C         10.35488        0.81227        1.05821
C          7.67516        2.12223        9.95072
C         -1.80334        5.05673       16.72681
F          0.95193        1.37041       16.66385
F          3.63166        1.56409        7.77134
F          7.59962        4.49859        1.12117
H          9.57614        0.30695        0.99774
H          6.89642        2.62755        9.89025
H         -1.02460        5.56205       16.78728
C         10.40787        1.84169        1.96026
C          7.72815        1.09281       10.85277
C         -1.85633        4.02731       15.82475
H          9.66484        2.02304        2.48990
H          6.98512        0.91146       11.38241
H         -1.11330        3.84596       15.29512
C         11.56178        2.62755        2.10201
C          8.88206        0.30695       10.99452
C         -3.01024        3.24145       15.68301
C         12.65588        2.30945        1.28817
C          9.97615        0.62505       10.18068
C         -4.10434        3.55955       16.49685
H         13.44514        2.79540        1.36589
H         10.76541        0.13910       10.25840
H         -4.89360        3.07360       16.41913
C         12.57507        1.28942        0.37918
C          9.89535        1.64508        9.27169
C         -4.02353        4.57958       17.40584
H          7.95292        1.11570       17.62495
H         10.63265        1.81880        8.73244
H          0.59863        4.75330        0.16007
C         10.47776        4.06546        3.78074
C          7.79804        4.73804       12.67325
C         -1.92622        1.80354       14.00428
H          9.82296        4.45633        3.19775
H          7.14323        4.34717       12.09026
H         -1.27141        1.41267       14.58727
H         10.74923        4.71222        4.43558
H          8.06950        4.09128       13.32809
H         -2.19768        1.15678       13.34943
H         10.09713        3.30249        4.22216
H          7.41740        5.50101       13.11467
H         -1.54558        2.56651       13.56285
C         12.80380        4.47570        3.12945
C         10.12407        4.32780       12.02196
C         -4.25225        1.39330       14.65557
H         -0.33230        3.91697        3.22620
H         -3.01203        4.88653       12.11871
H          8.88384        1.95203       14.55882
H         12.71898        5.04088        3.90025
H         10.03925        3.76262       12.79276
H         -4.16743        0.82812       13.88476
H         12.89858        5.01917        2.34407
H         10.21885        3.78433       11.23657
H         -4.34704        0.84983       15.44095
N         11.62706        3.65052        3.00531
N          8.94733        5.15298       11.89782
N         -3.07551        2.21848       14.77971
O          5.58226        1.30527       13.83941
O          8.26199        1.62923        4.94690
O          2.96928        4.56373        3.94561
H          6.10017        1.88864       14.09285
H          8.77990        1.04586        5.20034
H          2.45138        3.98036        3.69217
O          6.37157        3.27079       15.17400
O          9.05130        5.53271        6.28149
O          2.17998        2.59821        2.61102
