124
2hp_3-opt.xyz
     O   0.770991  10.930020   0.955070
     C   0.169185  10.752267   5.096997
     O  -0.709111   8.530787   4.824778
     C  -0.040052  10.663439   6.553960
     C   0.535560  10.813362   2.291549
     C  -0.016179   9.680764   2.883428
     C  -0.195141   9.645031   4.276435
     O  -0.560419   9.573986   7.025827
     N   0.457777   0.673072   9.680374
     C   0.174338  11.619521   8.784454
     C   0.707900  -0.009877   4.442100
     C   0.334891  11.726421   7.416726
     C   0.899152   0.037313   3.076020
     C   0.985710   1.962570   9.266745
     C   0.322436   0.442725  11.111834
     C   0.407795   9.827128   0.118076
     H   1.031822   8.947532   0.348143
     H  -2.186285  10.160691  11.935964
     H   6.771295   9.567763   0.236621
     H  -0.317269   8.808501   2.306532
     H  -0.213393  10.686734   9.195687
     H   0.757669   0.742402   6.992944
     H   1.357523   0.899970   2.592175
     H   1.007129   0.859332   5.025487
     H  -0.359873   1.187168  11.545242
     H   0.309935   2.425134   8.532133
     H   1.051694   2.613958  10.145578
     H  -0.054202  11.319793  11.287044
     H   1.983975   1.835367   8.820309
     H   1.305998   0.538125  11.595497
     H  -0.742473   8.779819   5.861887
     O   1.553799   4.985520   5.467050
     O   3.878589   0.958980  11.889160
     O   3.095781   6.903480   7.377180
     C   2.155605   4.807767   1.325123
     C   4.480395   1.136733   7.747233
     C   2.493975   7.081233  11.519107
     O   3.033901   2.586287   1.597332
     O   5.358691   3.358213   8.019442
     O   1.615679   9.302713  11.246888
     C  -0.412178   4.718939  12.712380
     C   4.689632   1.225561   6.290270
     C   5.061758   7.170061   0.131840
     C   1.789230   4.868862   4.130561
     C   4.114020   1.075638  10.552671
     C   2.860350   7.020138   8.713659
     C   2.340969   3.736264   3.538682
     C   4.665759   2.208236   9.960792
     C   2.308611   8.152736   9.305538
     C   2.519931   3.700531   2.145675
     C   4.844721   2.243969   8.567785
     C   2.129649   8.188469  10.698545
     O   0.108189   3.629486  12.240503
     O   5.209999   2.315014   5.818393
     O   4.541391   8.259514   0.603717
     N  -0.910007   6.617572   9.585956
     N   4.191803  11.215928   3.163846
     N   5.559587   5.271428   3.258264
     C  -0.626568   5.675021  10.481876
     C   4.475242   0.269479   4.059766
     C   5.276148   6.213979   2.362344
     C   1.616890   5.934623   1.980010
     C   3.941680  11.898877   8.402120
     C   3.032690   5.954377  10.864210
     C  -0.787121   5.781921  11.849614
     C   4.314689   0.162579   5.427504
     C   5.436701   6.107079   0.994606
     C   1.425638   5.981813   3.346090
     C   3.750428  11.851687   9.768200
     C   3.223942   5.907187   9.498140
     C  -1.437940   7.907070   9.999585
     C   3.663870   9.926430   3.577475
     C   6.087520   3.981930   2.844635
     C  -0.774666   6.387225   8.154496
     C   4.327144  11.446275   1.732386
     C   5.424246   5.501775   4.689724
     C   1.916995   3.882628   6.304034
     C   4.241785   2.061872  12.726154
     C   2.732585   8.006372   6.540186
     H   1.292968   3.003032   6.073977
     H   3.617758   2.941468  12.496087
     H   3.356612   8.885968   6.770253
     H   1.734055   4.216191   7.330366
     H   6.835865   1.728309   0.908256
     H   2.915525   7.672809   5.513854
     H   2.980095   3.623263   6.185499
     H  -2.121715   2.321237  12.607609
     H   1.669485   8.265737   6.658731
     H   2.642059   2.864001   4.115578
     H   4.966849   3.080499  10.537688
     H   2.007521   9.024999   8.728642
     H  -0.238837   4.742234  10.070643
     H   4.862973   1.202266   3.648533
     H   4.888417   7.146766   2.773577
     H  -1.209899   6.686902  12.273396
     H   3.891911  11.146598   5.851286
     H   5.859479   5.202098   0.570834
     H   0.967267   6.844470   3.829935
     H   3.292057  10.989030  10.252045
     H   3.682313   5.044530   9.014295
     H   1.317661   6.803832   1.396623
     H   3.642461  11.029668   7.818733
     H   3.331919   5.085168  11.447597
     H  -0.092357   7.131668   7.721098
     H   5.009453  10.701832   1.298988
     H   4.741937   4.757332   5.123132
     H  -0.762165   8.369634  10.734197
     H   4.339645   9.463866   4.312087
     H   5.411745   3.519366   2.110023
     H  -1.503914   8.558458   9.120762
     H   3.597896   9.275042   2.698652
     H   6.153504   3.330542   3.723468
     H  -0.398028   5.375293   7.979286
     H   4.703782   0.569207   1.557176
     H   5.047608   6.513707   4.864934
     H   4.990395   7.779867  10.446021
     H   2.665605  10.053633   4.023911
     H  -0.340815   4.109133   2.398199
     H  -1.758228   6.482625   7.670843
     H   3.343582  11.350875   1.248733
     H   6.407808   5.406375   5.173387
     H   3.067263   2.835319   0.560223
     H   5.392053   3.109181   6.982333
     H   1.582317   9.053681  12.283997
