62
3cell_dimer_1.xyz
     O   0.739033  10.976400   1.008785
     C   0.501047  10.849188   2.341373
     C   0.469678   9.872031   0.166846
     C  -0.014601   9.719614   2.939143
     C   0.830439  11.970201   3.111384
     H   1.049162   9.142641   0.399455
     H  -0.444682   9.601557   0.277435
     H   0.621329  10.122294  -0.747534
     C  -0.190750   9.689654   4.320282
     H  -0.220366   8.979761   2.427558
     C   0.662564  11.924072   4.464909
     H   1.222394  12.728364   2.658754
     C   0.161447  10.792121   5.128056
     O  -0.705004   8.569235   4.860767
     H   0.900976  12.722418   5.004109
     C  -0.015395  10.711394   6.588315
     H  -0.729796   8.821638   5.779900
     O  -0.507488   9.648993   7.072671
     C   0.370002  11.791748   7.431796
     C   0.220869  11.683439   8.785191
     H   0.725121  12.592830   7.054047
     H  -0.095530  10.872491   9.132242
     N   0.481021  12.607096   9.696488
     C   0.329188  12.338048  11.111151
     C   0.955483  13.922851   9.313602
     H   0.006034  11.437218  11.238694
     H  -0.231355  12.947121  11.512277
     H   1.162830  12.478694  11.555946
     H   0.375772  14.328622   8.669850
     H   1.086356  14.439190  10.089136
     H   1.824642  13.845929   8.872788
     H   6.981918   9.601557   0.277435
     C   7.896278   9.872031   0.166846
     H   8.475761   9.142641   0.399455
     H   8.047929  10.122294  -0.747534
     O   8.165633  10.976400   1.008785
     C   7.927647  10.849188   2.341373
     C   7.411999   9.719614   2.939143
     C   8.257039  11.970201   3.111384
     H   7.206234   8.979761   2.427558
     C   7.235850   9.689654   4.320282
     H   8.648994  12.728364   2.658754
     C   8.089164  11.924072   4.464909
     O   6.721596   8.569235   4.860767
     C   7.588047  10.792121   5.128056
     H   8.327576  12.722418   5.004109
     H   6.696804   8.821638   5.779900
     C   7.411205  10.711394   6.588315
     O   6.919112   9.648993   7.072671
     C   7.796602  11.791748   7.431796
     C   7.647470  11.683439   8.785191
     H   8.151721  12.592830   7.054047
     H   7.331069  10.872491   9.132242
     N   7.907621  12.607096   9.696488
     C   7.755788  12.338048  11.111151
     C   8.382083  13.922851   9.313602
     H   7.432633  11.437218  11.238694
     H   7.195245  12.947121  11.512277
     H   8.589430  12.478694  11.555946
     H   7.802372  14.328622   8.669850
     H   8.512957  14.439190  10.089136
     H   9.251242  13.845929   8.872788
