27
 
C       0.42991000       0.01993000       8.56421000
H       1.26827000       0.71007000       8.48883000
H      -0.31172000       0.43657000       9.24994000
C       0.39771000       0.63122000       6.15408000
H       0.27523000       1.69485000       6.37335000
N      -0.14439000      -0.16993000       7.23933000
H       0.78977000      -0.93212000       8.95996000
H      -0.12290000       0.39841000       5.22694000
H       1.46151000       0.41527000       6.02738000
C      -1.13474000      -1.03250000       7.03337000
H      -1.47995000      -1.12112000       6.00931000
C      -1.75812000      -1.80622000       7.99953000
C      -2.72728000      -2.82287000       7.59010000
H      -1.37880000      -1.81516000       9.02033000
O      -1.97111000      -3.84322000       7.30302000
C      -4.13795000      -2.74368000       7.59049000
C      -4.91990000      -3.86626000       7.19106000
C      -4.82557000      -1.56710000       7.96517000
O      -4.33350000      -5.03128000       6.82634000
C      -6.30023000      -3.78354000       7.16680000
C      -6.20903000      -1.49937000       7.93722000
H      -4.25007000      -0.70352000       8.28354000
H      -3.36888000      -4.93150000       6.90789000
H      -6.85979000      -4.65848000       6.85620000
C      -6.95160000      -2.60595000       7.53618000
H      -6.70953000      -0.58395000       8.23288000
H      -8.03412000      -2.56214000       7.51319000
27
 
C       0.43270761       0.02111765       8.57055864
H       1.26785983       0.70990968       8.48863214
H      -0.31063110       0.43638753       9.24847845
C       0.39826478       0.63356665       6.14971384
H       0.27501842       1.69351592       6.37430319
N      -0.16047103      -0.18203465       7.23832638
H       0.78932737      -0.93128832       8.95894756
H      -0.12286112       0.39832578       5.22741050
H       1.46054113       0.41466975       6.02882392
C      -1.11197361      -1.01329495       7.01668083
H      -1.47986750      -1.12195403       6.01013296
C      -1.76394628      -1.84052177       8.00852272
C      -2.78547565      -2.79346639       7.59097189
H      -1.37533109      -1.81463296       9.02141501
O      -1.92813824      -3.85002094       7.30394754
C      -4.11986179      -2.74165028       7.59306073
C      -4.93314883      -3.86038404       7.19268589
C      -4.82637371      -1.56617044       7.96550986
O      -4.32420601      -5.03815245       6.82435621
C      -6.29131330      -3.78550877       7.16632447
C      -6.21141243      -1.50201720       7.93588981
H      -4.25089141      -0.70265538       8.28422588
H      -3.37405675      -4.93328900       6.90729221
H      -6.85983381      -4.65871147       6.85613733
C      -6.95682507      -2.59971222       7.53798847
H      -6.70984467      -0.58368122       8.23295732
H      -8.03403575      -2.56193647       7.51334625
27
 
C       0.43581679       0.02086365       8.58433459
H       1.26718351       0.71002532       8.48712996
H      -0.30822852       0.43675190       9.24591517
C       0.39956402       0.63732481       6.14100577
H       0.27387039       1.69025661       6.37739456
N      -0.18250828      -0.19596928       7.23413207
H       0.78902295      -0.92983040       8.95720906
H      -0.12313506       0.39829562       5.22692319
H       1.45807589       0.41264590       6.03275687
C      -1.08073644      -0.98965343       6.99353853
H      -1.47999509      -1.12270585       6.00793093
C      -1.77548858      -1.93972232       8.00611778
C      -2.86608961      -2.75543092       7.57873918
H      -1.36539564      -1.81988313       9.02409059
O      -1.83960090      -3.80507445       7.33047589
C      -4.10991245      -2.73425917       7.59966034
C      -4.95514172      -3.85231099       7.19533590
C      -4.82822092      -1.55945232       7.96817417
O      -4.30796054      -5.05308606       6.81972725
C      -6.27610948      -3.78703151       7.16562987
C      -6.21796037      -1.50888373       7.93161633
H      -4.25522497      -0.70050167       8.28683299
H      -3.38445845      -4.93752537       6.90670847
H      -6.85814209      -4.65849976       6.85628483
C      -6.96967458      -2.58526730       7.54193943
H      -6.71026554      -0.58346672       8.23299033
H      -8.03606431      -2.56119945       7.51404593
27
 
C       0.43410513       0.02100349       8.57675070
H       1.26755584       0.70996166       8.48795694
H      -0.30955118       0.43655131       9.24732630
C       0.39884877       0.63525588       6.14579971
H       0.27450240       1.69205091       6.37569271
N      -0.17037641      -0.18829803       7.23644111
H       0.78919054      -0.93063301       8.95816613
H      -0.12298425       0.39831222       5.22719146
H       1.45943305       0.41376006       6.03059172
C      -1.09793302      -1.00266848       7.00627875
H      -1.47992485      -1.12229196       6.00914318
C      -1.76913435      -1.88511076       8.00744174
C      -2.82171028      -2.77637008       7.58547349
H      -1.37086527      -1.81699283       9.02261763
O      -1.88834219      -3.82981824       7.31587159
C      -4.11538973      -2.73832810       7.59602714
C      -4.94303427      -3.85675534       7.19387703
C      -4.82720400      -1.56315076       7.96670742
O      -4.31690395      -5.04486486       6.82227557
C      -6.28447944      -3.78619322       7.16601226
C      -6.21435562      -1.50510359       7.93396895
H      -4.25283927      -0.70168732       8.28539773
H      -3.37873214      -4.93519318       6.90702983
H      -6.85907341      -4.65861631       6.85620363
C      -6.96260071      -2.59321947       7.53976436
H      -6.71003385      -0.58358481       8.23297216
H      -8.03494755      -2.56160519       7.51366074
27
 
C       0.43455581       0.02054783       8.58430862
H       1.26705204       0.71018531       8.48652522
H      -0.30827066       0.43731354       9.24627891
C       0.39991991       0.63636609       6.14071503
H       0.27331537       1.68970613       6.37843789
N      -0.17121226      -0.18803903       7.23483302
H       0.78918142      -0.93060945       8.95737821
H      -0.12344668       0.39835723       5.22585144
H       1.45792309       0.41209689       6.03361115
C      -1.09783477      -0.99549637       6.99701707
H      -1.47961009      -1.12206141       6.00560101
C      -1.77025601      -1.95983820       7.99482447
C      -2.85652880      -2.75305238       7.56699804
H      -1.36121127      -1.82983777       9.02132312
O      -1.82342196      -3.78103819       7.35033107
C      -4.13003251      -2.73410277       7.60087105
C      -4.95112642      -3.85595574       7.19501015
C      -4.82980020      -1.55609259       7.96966590
O      -4.31219478      -5.05308790       6.81958688
C      -6.28059713      -3.78555155       7.16499311
C      -6.21896545      -1.50739175       7.92986598
H      -4.25678722      -0.69996622       8.28908525
H      -3.38175268      -4.93793814       6.90790259
H      -6.85679522      -4.65786575       6.85645215
C      -6.97035670      -2.58537068       7.54159002
H      -6.71015317      -0.58388460       8.23282583
H      -8.03837364      -2.56098253       7.51475682
27
 
C       0.43419563       0.02091199       8.57826833
H       1.26745467       0.71000657       8.48766945
H      -0.30929405       0.43670436       9.24711599
C       0.39906385       0.63547881       6.14477870
H       0.27426404       1.69158008       6.37624394
N      -0.17054425      -0.18824603       7.23611820
H       0.78918870      -0.93062828       8.95800792
H      -0.12307711       0.39832126       5.22692238
H       1.45912985       0.41342610       6.03119802
C      -1.09791329      -1.00122832       7.00441900
H      -1.47986164      -1.12224566       6.00843191
C      -1.76935958      -1.90011608       8.00490818
C      -2.82870186      -2.77168787       7.58176361
H      -1.36892674      -1.81957210       9.02235770
O      -1.87530617      -3.82002318       7.32279108
C      -4.11833001      -2.73747965       7.59699980
C      -4.94465918      -3.85659478       7.19410456
C      -4.82772532      -1.56173347       7.96730149
O      -4.31595834      -5.04651605       6.82173568
C      -6.28369987      -3.78606437       7.16580762
C      -6.21528127      -1.50556305       7.93314508
H      -4.25363202      -0.70134172       8.28613819
H      -3.37933867      -4.93574436       6.90720508
H      -6.85861595      -4.65846560       6.85625353
C      -6.96415812      -2.59164343       7.54013096
H      -6.71005781      -0.58364500       8.23294277
H      -8.03563551      -2.56148016       7.51388084
27
 
C       0.43334977       0.02063529       8.58324712
H       1.26700505       0.71033860       8.48621078
H      -0.30849152       0.43778925       9.24677270
C       0.40050786       0.63501292       6.14105636
H       0.27288982       1.68933392       6.37918936
N      -0.16201005      -0.18302406       7.23506504
H       0.78921824      -0.93146840       8.95758631
H      -0.12371824       0.39838643       5.22498224
H       1.45808451       0.41184768       6.03400660
C      -1.11399007      -0.99696253       7.00325357
H      -1.47945241      -1.12142790       6.00337769
C      -1.76375387      -1.96745253       7.98521527
C      -2.84467026      -2.75307848       7.55484892
H      -1.35711915      -1.84012870       9.01797888
O      -1.81544168      -3.76684593       7.36770349
C      -4.14706210      -2.73443972       7.60229997
C      -4.94672304      -3.85920288       7.19489161
C      -4.83102062      -1.55468829       7.97043587
O      -4.31619875      -5.05203077       6.81993169
C      -6.28558001      -3.78399536       7.16421503
C      -6.21985057      -1.50512217       7.92821591
H      -4.25766795      -0.69966891       8.29139909
H      -3.37910128      -4.93822042       6.90915720
H      -6.85591713      -4.65742228       6.85651481
C      -6.96960619      -2.58673423       7.54088248
H      -6.71015928      -0.58416376       8.23268847
H      -8.04030108      -2.56085675       7.51551353
27
 
C       0.43397198       0.02083883       8.57958473
H       1.26733579       0.71009436       8.48728377
H      -0.30908186       0.43699121       9.24702522
C       0.39944565       0.63535563       6.14379451
H       0.27390070       1.69098619       6.37702271
N      -0.16828780      -0.18686534       7.23583975
H       0.78919651      -0.93085041       8.95789644
H      -0.12324662       0.39833849       5.22640941
H       1.45885346       0.41300876       6.03194061
C      -1.10216401      -1.00010044       7.00411086
H      -1.47975344      -1.12202945       6.00709557
C      -1.76787743      -1.91791989       7.99970136
C      -2.83292392      -2.76676754       7.57464735
H      -1.36580481      -1.82500728       9.02119993
O      -1.85947795      -3.80596307       7.33466595
C      -4.12592680      -2.73667589       7.59840117
C      -4.94520486      -3.85728436       7.19431265
C      -4.82859660      -1.55987072       7.96813022
O      -4.31602191      -5.04797415       6.82125870
C      -6.28419698      -3.78551732       7.16538653
C      -6.21648940      -1.50544648       7.93184180
H      -4.25469912      -0.70089943       8.28752917
H      -3.37927590      -4.93639904       6.90772122
H      -6.85790238      -4.65818974       6.85632261
C      -6.96559859      -2.59034543       7.54032966
H      -6.71008464      -0.58378216       8.23287554
H      -8.03686909      -2.56131533       7.51431252
27
 
C       0.43227058       0.02055401       8.58231948
H       1.26691587       0.71052838       8.48580569
H      -0.30875760       0.43845122       9.24732447
C       0.40111483       0.63364173       6.14119582
H       0.27232402       1.68864895       6.38026132
N      -0.15340473      -0.17858800       7.23510558
H       0.78926622      -0.93241029       8.95779209
H      -0.12406062       0.39840812       5.22384630
H       1.45828647       0.41139075       6.03468068
C      -1.13040992      -0.99790193       7.00988524
H      -1.47944201      -1.12044477       6.00049770
C      -1.75535745      -1.98026510       7.97388338
C      -2.83550238      -2.75164327       7.53890977
H      -1.35213200      -1.85304688       9.01356813
O      -1.80070398      -3.74694559       7.39014676
C      -4.16578838      -2.73460341       7.60484409
C      -4.94293547      -3.86269727       7.19495003
C      -4.83304461      -1.55308436       7.97135907
O      -4.31999557      -5.05121914       6.82020920
C      -6.29096191      -3.78204814       7.16334994
C      -6.22148168      -1.50250816       7.92634150
H      -4.25897759      -0.69902938       8.29427341
H      -3.37675438      -4.93891653       6.91050356
H      -6.85485334      -4.65691995       6.85657895
C      -6.96922263      -2.58796421       7.54006547
H      -6.71033404      -0.58438607       8.23251420
H      -8.04283772      -2.56059071       7.51642818
27
 
C       0.43359320       0.02077542       8.58019356
H       1.26724231       0.71019098       8.48695471
H      -0.30900967       0.43731625       9.24709184
C       0.39981726       0.63497407       6.14321597
H       0.27354968       1.69046585       6.37774372
N      -0.16497440      -0.18502256       7.23567630
H       0.78921203      -0.93119768       8.95787321
H      -0.12342784       0.39835399       5.22583879
H       1.45872723       0.41264855       6.03255063
C      -1.10845235      -0.99961099       7.00539640
H      -1.47968411      -1.12167665       6.00562670
C      -1.76509012      -1.93179971       7.99395354
C      -2.83349795      -2.76340044       7.56669114
H      -1.36276085      -1.83124969       9.01950088
O      -1.84639319      -3.79282410       7.34701757
C      -4.13480112      -2.73621450       7.59983555
C      -4.94469963      -3.85848943       7.19445455
C      -4.82958685      -1.55835988       7.96884905
O      -4.31690656      -5.04869657       6.82102505
C      -6.28570305      -3.78474498       7.16493313
C      -6.21760082      -1.50479233       7.93061728
H      -4.25565163      -0.70048311       8.28903063
H      -3.37871454      -4.93695950       6.90834065
H      -6.85722358      -4.65790705       6.85637968
C      -6.96640541      -2.58981530       7.54027084
H      -6.71014016      -0.58391661       8.23279509
H      -8.03819788      -2.56115401       7.51478353
27
 
C       0.43197451       0.01984268       8.57963932
H       1.26692961       0.71062479       8.48577984
H      -0.30946890       0.43899645       9.24812345
C       0.40051823       0.63293559       6.14264472
H       0.27212413       1.68846983       6.38062741
N      -0.14893143      -0.17498027       7.23610675
H       0.78949743      -0.93299133       8.95823425
H      -0.12425807       0.39839395       5.22297461
H       1.45884520       0.41104090       6.03487043
C      -1.13873193      -1.00703857       7.01494143
H      -1.47985738      -1.11917114       5.99859352
C      -1.74565560      -1.97787187       7.96865917
C      -2.82488590      -2.75452281       7.53214055
H      -1.35242971      -1.85934483       9.00992256
O      -1.79609884      -3.73475890       7.39906228
C      -4.17686593      -2.73564218       7.60616609
C      -4.93968948      -3.86541905       7.19478335
C      -4.83569952      -1.55335551       7.97156030
O      -4.32317343      -5.04876106       6.82084678
C      -6.29616196      -3.78048029       7.16348749
C      -6.22230330      -1.49991302       7.92695348
H      -4.25958020      -0.69819445       8.29523267
H      -3.37515612      -4.93948196       6.91084347
H      -6.85448751      -4.65671148       6.85658762
C      -6.96785088      -2.59076331       7.53880566
H      -6.71078323      -0.58426558       8.23237644
H      -8.04459981      -2.56022659       7.51667632
27
 
C       0.43305847       0.02046729       8.58001047
H       1.26713901       0.71033429       8.48656660
H      -0.30916137       0.43787130       9.24743263
C       0.40004882       0.63430066       6.14302726
H       0.27307876       1.68980647       6.37869633
N      -0.15967466      -0.18170513       7.23581850
H       0.78930631      -0.93179021       8.95799248
H      -0.12370210       0.39836719       5.22489262
H       1.45876620       0.41211747       6.03331697
C      -1.11845511      -1.00206466       7.00854957
H      -1.47974135      -1.12084897       6.00330331
C      -1.75866999      -1.94701949       7.98559763
C      -2.83065299      -2.76046775       7.55527747
H      -1.35934799      -1.84053083       9.01633671
O      -1.82977862      -3.77364246       7.36421036
C      -4.14869709      -2.73602543       7.60192682
C      -4.94304454      -3.86077861       7.19456317
C      -4.83160615      -1.55670671       7.96974471
O      -4.31897680      -5.04871788       6.82096616
C      -6.28915811      -3.78333616       7.16445557
C      -6.21915427      -1.50318047       7.92940695
H      -4.25694942      -0.69972706       8.29107945
H      -3.37753903      -4.93779279       6.90916745
H      -6.85631973      -4.65751210       6.85644837
C      -6.96688291      -2.59012847       7.53978683
H      -6.71035260      -0.58403189       8.23265679
H      -8.04031273      -2.56084764       7.51540880
27
 
C       0.42984570       0.01680353       8.57752939
H       1.26617320       0.71148859       8.48342047
H      -0.31089954       0.44303147       9.25074840
C       0.40072610       0.62991151       6.14221214
H       0.26909619       1.68401530       6.38690515
N      -0.12296715      -0.15624171       7.23732161
H       0.79049609      -0.93669044       8.95929337
H      -0.12611550       0.39843471       5.21621099
H       1.45934516       0.40698468       6.04032401
C      -1.19327109      -1.03375856       7.03331023
H      -1.48095010      -1.11266545       5.98210911
C      -1.69512559      -2.09650376       7.91277674
C      -2.81725354      -2.72883969       7.45455738
H      -1.33376952      -1.92144905       8.98686193
O      -1.67005956      -3.58272939       7.51796848
C      -4.26717891      -2.73681663       7.62084301
C      -4.93246690      -3.87924980       7.19635533
C      -4.85270545      -1.54296299       7.97800407
O      -4.33440828      -5.04852440       6.82032452
C      -6.31991777      -3.77072326       7.16129239
C      -6.23357046      -1.48859892       7.92067510
H      -4.26895326      -0.69217807       8.30835473
H      -3.36960180      -4.94598573       6.91551141
H      -6.84875289      -4.65424275       6.85694827
C      -6.97183762      -2.59390540       7.53479432
H      -6.71303007      -0.58445218       8.23143302
H      -8.05962744      -2.55774166       7.52055436
27
 
C       0.43278484       0.02015524       8.57979916
H       1.26705675       0.71043260       8.48629864
H      -0.30930942       0.43831080       9.24771504
C       0.40010651       0.63392683       6.14295784
H       0.27273956       1.68931323       6.37939549
N      -0.15654824      -0.17953638       7.23594652
H       0.78940765      -0.93220757       8.95810328
H      -0.12390766       0.39837294       5.22415319
H       1.45881551       0.41168030       6.03391376
C      -1.12482727      -1.00476407       7.01065846
H      -1.47984430      -1.12015197       6.00149818
C      -1.75325785      -1.95975123       7.97939540
C      -2.82951174      -2.75777395       7.54669903
H      -1.35716945      -1.84742272       9.01382631
O      -1.81617517      -3.75738218       7.37730611
C      -4.15878832      -2.73609282       7.60353793
C      -4.94214363      -3.86235182       7.19471581
C      -4.83340320      -1.55553614       7.97044817
O      -4.32029111      -5.04870140       6.82091151
C      -6.29177795      -3.78226190       7.16418616
C      -6.22038211      -1.50193854       7.92866325
H      -4.25797180      -0.69908410       8.29255081
H      -3.37686301      -4.93849059       6.90970777
H      -6.85567525      -4.65723364       6.85649095
C      -6.96730491      -2.59045016       7.53936161
H      -6.71058064      -0.58406769       8.23255256
H      -8.04195779      -2.56058310       7.51584706
27
 
C       0.43303217       0.02043730       8.57999016
H       1.26713110       0.71034374       8.48654084
H      -0.30917560       0.43791354       9.24745977
C       0.40005437       0.63426473       6.14302059
H       0.27304615       1.68975907       6.37876353
N      -0.15937417      -0.18149668       7.23583080
H       0.78931605      -0.93183032       8.95800313
H      -0.12372186       0.39836775       5.22482155
H       1.45877094       0.41207545       6.03337433
C      -1.11906755      -1.00232411       7.00875226
H      -1.47975124      -1.12078197       6.00312981
C      -1.75814982      -1.94824318       7.98500152
C      -2.83054330      -2.76020884       7.55445297
H      -1.35913861      -1.84119323       9.01609543
O      -1.82847116      -3.77207964       7.36546903
C      -4.14966698      -2.73603191       7.60208167
C      -4.94295796      -3.86092981       7.19457784
C      -4.83177887      -1.55659420       7.96981232
O      -4.31910312      -5.04871629       6.82096091
C      -6.28940991      -3.78323291       7.16442968
C      -6.21927228      -1.50306110       7.92933547
H      -4.25704768      -0.69966526       8.29122087
H      -3.37747405      -4.93785986       6.90921938
H      -6.85625778      -4.65748533       6.85645247
C      -6.96692347      -2.59015939       7.53974596
H      -6.71037451      -0.58403533       8.23264677
H      -8.04047085      -2.56082221       7.51545093
27
 
C       0.43300671       0.02040826       8.57997050
H       1.26712345       0.71035289       8.48651591
H      -0.30918938       0.43795444       9.24748605
C       0.40005973       0.63422994       6.14301413
H       0.27301459       1.68971317       6.37882859
N      -0.15908324      -0.18129486       7.23584271
H       0.78932548      -0.93186916       8.95801344
H      -0.12374099       0.39836828       5.22475274
H       1.45877553       0.41203477       6.03342986
C      -1.11966053      -1.00257531       7.00894851
H      -1.47976083      -1.12071711       6.00296183
C      -1.75764618      -1.94942795       7.98442436
C      -2.83043710      -2.75995816       7.55365469
H      -1.35893588      -1.84183457       9.01586182
O      -1.82720526      -3.77056650       7.36668768
C      -4.15060604      -2.73603818       7.60223160
C      -4.94287412      -3.86107621       7.19459204
C      -4.83194610      -1.55648527       7.96987778
O      -4.31922543      -5.04871476       6.82095582
C      -6.28965371      -3.78313294       7.16440460
C      -6.21938654      -1.50294553       7.92926627
H      -4.25714282      -0.69960543       8.29135779
H      -3.37741115      -4.93792479       6.90926966
H      -6.85619781      -4.65745942       6.85645643
C      -6.96696274      -2.59018933       7.53970639
H      -6.71039574      -0.58403866       8.23263708
H      -8.04062393      -2.56079760       7.51549171
27
 
C       0.43303064       0.02043556       8.57998898
H       1.26713064       0.71034429       8.48653935
H      -0.30917643       0.43791599       9.24746135
C       0.40005469       0.63426264       6.14302020
H       0.27304426       1.68975631       6.37876744
N      -0.15935671      -0.18148457       7.23583152
H       0.78931662      -0.93183265       8.95800375
H      -0.12372301       0.39836778       5.22481742
H       1.45877122       0.41207301       6.03337766
C      -1.11910315      -1.00233919       7.00876404
H      -1.47975182      -1.12077808       6.00311973
C      -1.75811959      -1.94831429       7.98496687
C      -2.83053693      -2.76019379       7.55440506
H      -1.35912644      -1.84123172       9.01608141
O      -1.82839517      -3.77198881       7.36554218
C      -4.14972335      -2.73603229       7.60209067
C      -4.94295292      -3.86093860       7.19457869
C      -4.83178891      -1.55658766       7.96981625
O      -4.31911046      -5.04871620       6.82096060
C      -6.28942454      -3.78322691       7.16442817
C      -6.21927914      -1.50305416       7.92933132
H      -4.25705339      -0.69966167       8.29122909
H      -3.37747028      -4.93786375       6.90922240
H      -6.85625418      -4.65748378       6.85645270
C      -6.96692583      -2.59016119       7.53974358
H      -6.71037579      -0.58403553       8.23264619
H      -8.04048003      -2.56082074       7.51545337
27
 
C       0.43303210       0.02043722       8.57999011
H       1.26713108       0.71034376       8.48654077
H      -0.30917564       0.43791366       9.24745985
C       0.40005438       0.63426463       6.14302057
H       0.27304606       1.68975893       6.37876372
N      -0.15937333      -0.18149610       7.23583084
H       0.78931608      -0.93183043       8.95800316
H      -0.12372192       0.39836775       5.22482135
H       1.45877095       0.41207533       6.03337449
C      -1.11906926      -1.00232484       7.00875283
H      -1.47975127      -1.12078179       6.00312933
C      -1.75814837      -1.94824659       7.98499986
C      -2.83054300      -2.76020811       7.55445067
H      -1.35913802      -1.84119508       9.01609476
O      -1.82846751      -3.77207528       7.36547254
C      -4.14966969      -2.73603193       7.60208210
C      -4.94295771      -3.86093023       7.19457788
C      -4.83177935      -1.55659389       7.96981251
O      -4.31910347      -5.04871629       6.82096089
C      -6.28941061      -3.78323262       7.16442960
C      -6.21927261      -1.50306077       7.92933527
H      -4.25704796      -0.69966509       8.29122127
H      -3.37747387      -4.93786004       6.90921952
H      -6.85625761      -4.65748526       6.85645248
C      -6.96692359      -2.59015948       7.53974584
H      -6.71037458      -0.58403534       8.23264675
H      -8.04047129      -2.56082214       7.51545104
27
 
C       0.43303217       0.02043730       8.57999016
H       1.26713110       0.71034374       8.48654084
H      -0.30917560       0.43791354       9.24745978
C       0.40005437       0.63426473       6.14302059
H       0.27304615       1.68975906       6.37876354
N      -0.15937414      -0.18149665       7.23583080
H       0.78931605      -0.93183033       8.95800313
H      -0.12372186       0.39836775       5.22482154
H       1.45877094       0.41207544       6.03337433
C      -1.11906763      -1.00232414       7.00875229
H      -1.47975125      -1.12078197       6.00312979
C      -1.75814975      -1.94824333       7.98500144
C      -2.83054329      -2.76020880       7.55445287
H      -1.35913858      -1.84119331       9.01609540
O      -1.82847099      -3.77207944       7.36546919
C      -4.14966711      -2.73603191       7.60208169
C      -4.94295794      -3.86092983       7.19457784
C      -4.83177889      -1.55659418       7.96981233
O      -4.31910313      -5.04871629       6.82096091
C      -6.28940994      -3.78323289       7.16442967
C      -6.21927230      -1.50306108       7.92933546
H      -4.25704770      -0.69966525       8.29122089
H      -3.37747405      -4.93785986       6.90921939
H      -6.85625778      -4.65748533       6.85645247
C      -6.96692348      -2.59015940       7.53974595
H      -6.71037452      -0.58403533       8.23264677
H      -8.04047087      -2.56082221       7.51545093
27
 
C       0.43303217       0.02043730       8.57999016
H       1.26713110       0.71034374       8.48654084
H      -0.30917560       0.43791354       9.24745977
C       0.40005437       0.63426473       6.14302059
H       0.27304615       1.68975907       6.37876353
N      -0.15937417      -0.18149668       7.23583080
H       0.78931605      -0.93183032       8.95800313
H      -0.12372186       0.39836775       5.22482155
H       1.45877094       0.41207545       6.03337433
C      -1.11906756      -1.00232411       7.00875226
H      -1.47975124      -1.12078197       6.00312981
C      -1.75814982      -1.94824318       7.98500152
C      -2.83054330      -2.76020884       7.55445297
H      -1.35913861      -1.84119323       9.01609543
O      -1.82847115      -3.77207963       7.36546903
C      -4.14966699      -2.73603191       7.60208167
C      -4.94295796      -3.86092981       7.19457784
C      -4.83177887      -1.55659420       7.96981232
O      -4.31910312      -5.04871629       6.82096091
C      -6.28940991      -3.78323291       7.16442968
C      -6.21927228      -1.50306110       7.92933547
H      -4.25704768      -0.69966526       8.29122087
H      -3.37747405      -4.93785986       6.90921938
H      -6.85625778      -4.65748533       6.85645247
C      -6.96692347      -2.59015939       7.53974596
H      -6.71037451      -0.58403533       8.23264677
H      -8.04047085      -2.56082221       7.51545093
