80
2hc_2_424-mega_dimer_4.xyz
     C   2.553201  -2.658779  -4.605183
     C   2.003740  -1.591982  -5.375045
     C   2.364491  -2.727633  -3.244044
     H   3.135661  -3.435715  -5.094676
     C   1.247109  -0.607923  -4.680003
     N   2.197245  -1.524853  -6.717190
     C   1.628214  -1.742526  -2.544853
     H   2.810172  -3.558198  -2.697065
     C   1.071163  -0.694102  -3.315116
     H   0.800426   0.223073  -5.220494
     C   3.041507  -2.501856  -7.387689
     C   1.618481  -0.432525  -7.483522
     C   1.453269  -1.740841  -1.127854
     H   0.496034   0.074390  -2.797705
     H   2.638680  -3.520413  -7.274076
     H   3.087893  -2.266027  -8.455047
     H   4.067959  -2.481285  -6.985003
     H   1.809186  -0.598363  -8.548640
     H   0.529036  -0.389905  -7.334041
     H   2.054389   0.539030  -7.199118
     C   1.995711  -2.614472  -0.226791
     H   0.824780  -0.942808  -0.722327
     H   2.643729  -3.416825  -0.571906
     C   1.754536  -2.484814   1.187257
     C   2.331984  -3.444253   2.138501
     O   1.021369  -1.531306   1.639506
     C   3.125072  -4.542615   1.749447
     C   2.061708  -3.290261   3.532347
     H   1.047936  -1.760816   3.104999
     C   3.609347  -5.451136   2.673973
     H   3.364409  -4.705792   0.700013
     O   1.306270  -2.266076   3.979362
     C   2.556416  -4.216754   4.455230
     C   3.315939  -5.308821   4.043903
     H   4.225537  -6.285629   2.340322
     H   2.330283  -4.059447   5.510250
     C   3.797503  -6.319273   5.042906
     H   4.283994  -7.172302   4.553201
     H   4.514960  -5.875751   5.751278
     H   2.955985  -6.707014   5.637774
     C   5.374712  -2.658779   6.198287
     C   4.825251  -1.591982   5.428425
     C   5.186002  -2.727633   7.559426
     H   5.957172  -3.435715   5.708794
     C   4.068620  -0.607923   6.123467
     N   5.018756  -1.524853   4.086280
     C   4.449725  -1.742526   8.258617
     H   5.631683  -3.558198   8.106405
     C   3.892674  -0.694102   7.488354
     H   3.621937   0.223073   5.582976
     C   5.863018  -2.501856   3.415781
     C   4.439992  -0.432525   3.319948
     C   4.274780  -1.740841   9.675616
     H   3.317545   0.074390   8.005765
     H   5.460191  -3.520413   3.529394
     H   5.909404  -2.266027   2.348423
     H   6.889470  -2.481285   3.818467
     H   4.630697  -0.598363   2.254830
     H   3.350547  -0.389905   3.469429
     H   4.875900   0.539030   3.604352
     C   4.817222  -2.614472  10.576679
     H   3.646291  -0.942808  10.081143
     H   5.465240  -3.416825  10.231564
     C   4.576047  -2.484814  11.990727
     C   5.153495  -3.444253  12.941971
     O   3.842880  -1.531306  12.442976
     C   5.946583  -4.542615  12.552917
     C   4.883219  -3.290261  14.335817
     H   3.869447  -1.760816  13.908469
     C   6.430858  -5.451136  13.477443
     H   6.185920  -4.705792  11.503483
     O   4.127781  -2.266076  14.782832
     C   5.377927  -4.216754  15.258700
     C   6.137450  -5.308821  14.847373
     H   7.047048  -6.285629  13.143792
     H   5.151794  -4.059447  16.313720
     C   6.619014  -6.319273  15.846376
     H   7.105505  -7.172302  15.356671
     H   7.336471  -5.875751  16.554748
     H   5.777496  -6.707014  16.441244
