80
2hc_2_424-mega_dimer_6.xyz
     C  -3.780088  -2.658779   6.198287
     C  -4.329549  -1.591982   5.428425
     C  -3.968798  -2.727633   7.559426
     H  -3.197628  -3.435715   5.708794
     C  -5.086180  -0.607923   6.123467
     N  -4.136044  -1.524853   4.086280
     C  -4.705075  -1.742526   8.258617
     H  -3.523117  -3.558198   8.106405
     C  -5.262126  -0.694102   7.488354
     H  -5.532863   0.223073   5.582976
     C  -3.291782  -2.501856   3.415781
     C  -4.714808  -0.432525   3.319948
     C  -4.880020  -1.740841   9.675616
     H  -5.837255   0.074390   8.005765
     H  -3.694609  -3.520413   3.529394
     H  -3.245396  -2.266027   2.348423
     H  -2.265330  -2.481285   3.818467
     H  -4.524103  -0.598363   2.254830
     H  -5.804253  -0.389905   3.469429
     H  -4.278900   0.539030   3.604352
     C  -4.337578  -2.614472  10.576679
     H  -5.508509  -0.942808  10.081143
     H  -3.689560  -3.416825  10.231564
     C  -4.578753  -2.484814  11.990727
     C  -4.001305  -3.444253  12.941971
     O  -5.311920  -1.531306  12.442976
     C  -3.208217  -4.542615  12.552917
     C  -4.271581  -3.290261  14.335817
     H  -5.285353  -1.760816  13.908469
     C  -2.723942  -5.451136  13.477443
     H  -2.968880  -4.705792  11.503483
     O  -5.027019  -2.266076  14.782832
     C  -3.776873  -4.216754  15.258700
     C  -3.017350  -5.308821  14.847373
     H  -2.107752  -6.285629  13.143792
     H  -4.003006  -4.059447  16.313720
     C  -2.535786  -6.319273  15.846376
     H  -2.049295  -7.172302  15.356671
     H  -1.818329  -5.875751  16.554748
     H  -3.377304  -6.707014  16.441244
     C  -2.061709   3.290261  -3.532347
     C  -2.556417   4.216754  -4.455230
     C  -2.331985   3.444253  -2.138501
     O  -1.306271   2.266076  -3.979362
     H  -2.330284   4.059457  -5.510250
     C  -3.315940   5.308821  -4.043903
     C  -3.125073   4.542615  -1.749447
     C  -1.754537   2.484814  -1.187257
     H  -1.047937   1.760816  -3.104999
     C  -3.609348   5.451136  -2.673973
     C  -3.797504   6.319273  -5.042906
     H  -3.364410   4.705792  -0.700013
     O  -1.021370   1.531306  -1.639506
     C  -1.995712   2.614472   0.226791
     H  -4.225538   6.285629  -2.340322
     H  -4.283995   7.172302  -4.553201
     H  -4.514961   5.875751  -5.751278
     H  -2.955986   6.707014  -5.637774
     H  -2.643730   3.416825   0.571906
     C  -1.453270   1.740841   1.127854
     H  -0.824781   0.942808   0.722327
     C  -1.628215   1.742526   2.544853
     C  -2.364492   2.727633   3.244044
     C  -1.071164   0.694102   3.315116
     H  -2.810173   3.558198   2.697065
     C  -2.553202   2.658779   4.605183
     C  -1.247110   0.607923   4.680003
     H  -0.496035  -0.074390   2.797705
     H  -3.135662   3.435715   5.094676
     C  -2.003741   1.591982   5.375045
     H  -0.800427  -0.223073   5.220494
     N  -2.197246   1.524853   6.717190
     C  -3.041508   2.501856   7.387689
     C  -1.618482   0.432525   7.483522
     H  -2.638681   3.520413   7.274076
     H  -3.087894   2.266027   8.455047
     H  -4.067960   2.481285   6.985003
     H  -2.054390  -0.539030   7.199118
     H  -1.809187   0.598363   8.548640
     H  -0.529037   0.389905   7.334041
