41
2hc_5_221-mega-cluster.xyz
     H   2.005068  11.054098   7.717420
     C   1.546250  10.181600   7.222399
     H   0.590725  10.473715   6.770532
     H   1.382557   9.375631   7.956168
     O   2.372714   9.728943   6.147760
     C   3.632764   9.277856   6.467496
     C   4.405574   8.842296   5.376033
     C   4.162522   9.227970   7.747855
     H   3.981016   8.899345   4.374848
     C   5.684736   8.359717   5.568192
     H   3.565333   9.561234   8.590808
     C   5.478434   8.754380   7.971997
     H   6.281334   8.023785   4.720040
     C   6.245407   8.316618   6.852846
     C   6.100916   8.716791   9.302113
     O   7.507974   7.852835   7.003880
     O   7.324101   8.327928   9.391899
     C   5.386820   9.106002  10.490866
     H   7.678973   7.992494   8.030768
     H   4.363034   9.459521  10.398643
     C   5.988972   9.053208  11.715287
     C   5.481430   9.449819  12.989449
     H   7.014084   8.668235  11.726047
     C   6.311298   9.290617  14.122808
     C   4.205794  10.026795  13.196560
     H   7.297610   8.846235  13.985776
     C   5.918582   9.688218  15.382653
     H   3.532176  10.165255  12.350682
     C   3.795505  10.430325  14.445042
     H   6.596418   9.545124  16.221282
     C   4.645375  10.286023  15.578832
     H   2.807934  10.871126  14.557730
     N   4.249517  10.714701  16.808941
     C   5.101248  10.488588  17.965661
     C   2.907332  11.240028  17.013020
     H   6.082683  10.973973  17.836293
     H   5.269457   9.411025  18.131851
     H   4.624006  10.903989  18.859321
     H   2.140762  10.475114  16.808062
     H   2.804822  11.564426  18.053688
     H   2.718991  12.101348  16.355502
