27

H   11.357137000   0.372408000   7.178412000
C   10.472649000  -0.079823000   6.699821000
H   10.369134000   0.317132000   5.680667000
H   10.610911000  -1.172697000   6.651176000
N    9.279144000   0.244286000   7.469577000
C    9.278505000  -0.132365000   8.881104000
C    8.243735000   0.866185000   6.906409000
H    9.092004000   0.750290000   9.512499000
H   10.258882000  -0.547157000   9.144329000
H    8.507052000  -0.893400000   9.095932000
H    8.376009000   1.132436000   5.854629000
C    7.048529000   1.204255000   7.518168000
H    6.879999000   0.962891000   8.563434000
C    6.042227000   1.900979000   6.789389000
O    6.205327000   2.240625000   5.554279000
C    4.756431000   2.280951000   7.430102000
H    5.078409000   3.059676000   5.278882000
C    4.376607000   1.854386000   8.719701000
C    3.846509000   3.110952000   6.703517000
O    4.160933000   3.553265000   5.473643000
H    5.016193000   1.223350000   9.335095000
C    3.155101000   2.239237000   9.230256000
C    2.606874000   3.471968000   7.261379000
F    2.813102000   1.791263000  10.492980000
C    2.249607000   3.040609000   8.533849000
H    1.928494000   4.087570000   6.664064000
H    1.291593000   3.303638000   8.990047000
27

H   11.308637000   0.485749000   6.938119000
C   10.416497000  -0.052134000   6.606052000
H   10.175318000   0.258944000   5.588855000
H   10.635839000  -1.123310000   6.608736000
N    9.291165000   0.245877000   7.473637000
C    9.455721000  -0.022440000   8.892934000
C    8.169265000   0.759961000   6.976117000
H    9.280304000   0.885086000   9.471533000
H   10.479533000  -0.344776000   9.076343000
H    8.771843000  -0.804229000   9.233868000
H    8.201509000   0.978689000   5.915063000
C    7.003938000   1.066181000   7.636274000
H    6.876221000   0.866242000   8.687997000
C    6.006612000   1.746551000   6.887067000
O    6.252906000   2.052644000   5.683032000
C    4.712011000   2.198616000   7.469820000
H    5.177009000   3.088991000   5.378095000
C    4.210534000   1.734843000   8.697135000
C    3.930115000   3.145500000   6.751275000
O    4.326374000   3.639473000   5.582900000
H    4.733553000   1.001129000   9.290158000
C    3.001197000   2.195865000   9.159001000
C    2.709454000   3.598711000   7.264803000
F    2.519918000   1.703402000  10.332046000
C    2.234235000   3.125271000   8.470081000
H    2.141938000   4.307140000   6.673709000
H    1.279455000   3.444933000   8.868688000
27

H   11.337316000   0.457148000   6.874199000
C   10.443629000  -0.096729000   6.574127000
H   10.180990000   0.183831000   5.553376000
H   10.671837000  -1.165677000   6.602546000
N    9.332216000   0.216757000   7.454112000
C    9.525380000  -0.010382000   8.876987000
C    8.197035000   0.707983000   6.963676000
H    9.353263000   0.911621000   9.433257000
H   10.555061000  -0.319506000   9.049991000
H    8.854459000  -0.787582000   9.252412000
H    8.207709000   0.897123000   5.896517000
C    7.041706000   1.023551000   7.636876000
H    6.935249000   0.852191000   8.695985000
C    6.025011000   1.674900000   6.887912000
O    6.246307000   1.949019000   5.671384000
C    4.737787000   2.133080000   7.482120000
H    5.156383000   2.968041000   5.357992000
C    4.263099000   1.700024000   8.731120000
C    3.934844000   3.053360000   6.752310000
O    4.305183000   3.517440000   5.563358000
H    4.803119000   0.987299000   9.334412000
C    3.058798000   2.164428000   9.202654000
C    2.720246000   3.511317000   7.275908000
F    2.603531000   1.701330000  10.397834000
C    2.271481000   3.068184000   8.502658000
H    2.135983000   4.198478000   6.676087000
H    1.321675000   3.391487000   8.910114000
27

H   11.353592000   0.374541000   7.044029000
C   10.448462000  -0.070216000   6.634445000
H   10.282442000   0.334707000   5.640721000
H   10.602707000  -1.144617000   6.555256000
N    9.306034000   0.231220000   7.470886000
C    9.363712000  -0.182785000   8.860545000
C    8.239643000   0.852153000   6.974478000
H    9.210344000   0.669029000   9.514911000
H   10.348098000  -0.588026000   9.070703000
H    8.614896000  -0.940501000   9.076809000
H    8.309313000   1.139936000   5.936957000
C    7.080505000   1.169088000   7.625560000
H    6.924504000   0.907467000   8.654410000
C    6.098520000   1.892937000   6.886197000
O    6.312402000   2.180516000   5.689454000
C    4.788620000   2.281491000   7.475885000
H    4.993507000   2.945137000   5.231631000
C    4.398788000   1.894423000   8.763838000
C    3.879313000   3.042098000   6.702760000
O    4.134087000   3.415632000   5.457830000
H    5.035005000   1.298455000   9.392360000
C    3.168348000   2.258444000   9.248005000
C    2.636043000   3.399366000   7.233394000
F    2.796567000   1.846227000  10.471144000
C    2.273811000   3.008434000   8.501941000
H    1.957298000   3.940289000   6.594524000
H    1.301408000   3.242567000   8.902597000
27

H   11.320912000   0.371071000   7.106454000
C   10.422313000  -0.045986000   6.655443000
H   10.278935000   0.411896000   5.681380000
H   10.572911000  -1.115601000   6.522614000
N    9.264260000   0.217636000   7.483124000
C    9.291059000  -0.269598000   8.849785000
C    8.211452000   0.870316000   6.998591000
H    9.128313000   0.547331000   9.545087000
H   10.268877000  -0.691266000   9.058280000
H    8.534219000  -1.033194000   9.010230000
H    8.304046000   1.212128000   5.979419000
C    7.040615000   1.159316000   7.641692000
H    6.862017000   0.844604000   8.651827000
C    6.077739000   1.927106000   6.921777000
O    6.317816000   2.276268000   5.746579000
C    4.757799000   2.291771000   7.504291000
H    5.012463000   3.071903000   5.303014000
C    4.339433000   1.839489000   8.761679000
C    3.868466000   3.097616000   6.754104000
O    4.150845000   3.534916000   5.536188000
H    4.959546000   1.207329000   9.370632000
C    3.101006000   2.184759000   9.239169000
C    2.616213000   3.433762000   7.277365000
F    2.701908000   1.710683000  10.430886000
C    2.225824000   2.978484000   8.515739000
H    1.953527000   4.011758000   6.654295000
H    1.246472000   3.196921000   8.908252000
27

H   11.337557000   0.440887000   7.106354000
C   10.466181000  -0.059514000   6.682582000
H   10.321195000   0.297778000   5.665874000
H   10.668856000  -1.130276000   6.654467000
N    9.283670000   0.225184000   7.467727000
C    9.304928000  -0.138418000   8.873865000
C    8.208160000   0.788208000   6.920123000
H    9.082522000   0.726600000   9.495011000
H   10.299384000  -0.487074000   9.137852000
H    8.584026000  -0.926543000   9.087572000
H    8.293404000   1.056776000   5.876668000
C    7.028291000   1.081258000   7.547483000
H    6.879060000   0.835134000   8.582148000
C    6.026199000   1.792520000   6.810021000
O    6.204580000   2.113099000   5.614513000
C    4.749218000   2.208237000   7.451862000
H    5.034742000   3.091275000   5.296069000
C    4.355815000   1.757523000   8.719001000
C    3.885612000   3.076674000   6.748461000
O    4.181556000   3.545988000   5.540302000
H    4.967730000   1.082245000   9.293150000
C    3.153676000   2.157921000   9.249503000
C    2.669411000   3.469805000   7.320699000
F    2.775624000   1.687788000  10.450051000
C    2.297098000   3.010867000   8.566405000
H    2.022682000   4.107202000   6.736175000
H    1.345199000   3.278724000   8.999992000
27

H   11.335003000   0.390146000   7.132219000
C   10.461304000  -0.106371000   6.708659000
H   10.321395000   0.246845000   5.689818000
H   10.656690000  -1.178624000   6.686382000
N    9.278759000   0.190332000   7.489295000
C    9.293897000  -0.166408000   8.897269000
C    8.208556000   0.757985000   6.936101000
H    9.075839000   0.703195000   9.513536000
H   10.285250000  -0.520556000   9.165575000
H    8.567050000  -0.948498000   9.112997000
H    8.298330000   1.020768000   5.891554000
C    7.029116000   1.062237000   7.558919000
H    6.875533000   0.822292000   8.594398000
C    6.033836000   1.776674000   6.815327000
O    6.217495000   2.090071000   5.618714000
C    4.758092000   2.204326000   7.451765000
H    5.055227000   3.074649000   5.292373000
C    4.358340000   1.762630000   8.720091000
C    3.902288000   3.075154000   6.741816000
O    4.204559000   3.536411000   5.532122000
H    4.964120000   1.086037000   9.299176000
C    3.157617000   2.173896000   9.245462000
C    2.687346000   3.479457000   7.308921000
F    2.773253000   1.712345000  10.447336000
C    2.308682000   3.029286000   8.555912000
H    2.046518000   4.118357000   6.719559000
H    1.357531000   3.305817000   8.985679000
27

H   11.346515000   0.317486000   7.087183000
C   10.441453000  -0.142589000   6.681041000
H   10.290384000   0.221079000   5.664556000
H   10.590954000  -1.225277000   6.650329000
N    9.290055000   0.198313000   7.491414000
C    9.323328000  -0.174704000   8.896216000
C    8.225727000   0.801512000   6.959831000
H    9.139071000   0.695381000   9.527776000
H   10.312523000  -0.558378000   9.140515000
H    8.579858000  -0.943337000   9.120995000
H    8.307070000   1.052421000   5.908367000
C    7.057372000   1.136857000   7.595566000
H    6.907949000   0.910790000   8.637830000
C    6.055989000   1.839005000   6.843917000
O    6.239531000   2.134979000   5.638210000
C    4.760729000   2.242254000   7.470417000
H    5.071404000   3.134222000   5.321747000
C    4.346869000   1.783193000   8.730856000
C    3.889425000   3.093315000   6.749555000
O    4.202415000   3.570894000   5.543788000
H    4.961559000   1.119975000   9.320312000
C    3.121598000   2.155511000   9.235200000
C    2.649206000   3.457355000   7.292897000
F    2.728432000   1.676013000  10.432461000
C    2.258324000   2.988840000   8.531602000
H    1.997583000   4.080518000   6.692468000
H    1.287926000   3.234937000   8.945348000
27

H   11.346655000   0.332987000   7.083999000
C   10.442471000  -0.129312000   6.678429000
H   10.289652000   0.234279000   5.662178000
H   10.594761000  -1.211598000   6.647260000
N    9.290834000   0.208344000   7.489821000
C    9.326189000  -0.165023000   8.894479000
C    8.224520000   0.808939000   6.959269000
H    9.140171000   0.704383000   9.526457000
H   10.316571000  -0.546200000   9.137875000
H    8.584897000  -0.935656000   9.119605000
H    8.304378000   1.060387000   5.907820000
C    7.055802000   1.141048000   7.596034000
H    6.907793000   0.914269000   8.638345000
C    6.052002000   1.840825000   6.845398000
O    6.233819000   2.137650000   5.639639000
C    4.756195000   2.240511000   7.473049000
H    5.062848000   3.133952000   5.324414000
C    4.344528000   1.779983000   8.733672000
C    3.882111000   3.089529000   6.753144000
O    4.192904000   3.568295000   5.547280000
H    4.961407000   1.118182000   9.322433000
C    3.118694000   2.148958000   9.239102000
C    2.641381000   3.450175000   7.297582000
F    2.727725000   1.668068000  10.436524000
C    2.252699000   2.980260000   8.536449000
H    1.987665000   4.071829000   6.697864000
H    1.281994000   3.223705000   8.951040000
27

H   11.367056000   0.391723000   7.132284000
C   10.477786000  -0.082628000   6.697991000
H   10.333767000   0.300557000   5.684206000
H   10.654071000  -1.164161000   6.645883000
N    9.305742000   0.212459000   7.497289000
C    9.321313000  -0.211820000   8.889117000
C    8.231809000   0.801558000   6.960560000
H    9.081176000   0.626453000   9.550275000
H   10.323722000  -0.560157000   9.144826000
H    8.607462000  -1.024990000   9.069041000
H    8.329171000   1.073430000   5.911570000
C    7.042170000   1.102654000   7.581289000
H    6.883084000   0.871987000   8.624207000
C    6.032928000   1.789354000   6.815805000
O    6.234338000   2.114266000   5.618446000
C    4.738361000   2.209771000   7.454900000
H    4.990737000   3.035469000   5.265495000
C    4.331667000   1.772714000   8.728446000
C    3.869413000   3.072432000   6.741233000
O    4.164711000   3.519771000   5.511667000
H    4.946766000   1.105095000   9.317853000
C    3.123840000   2.182889000   9.255460000
C    2.650008000   3.480658000   7.304497000
F    2.744773000   1.732088000  10.471699000
C    2.270160000   3.037065000   8.558375000
H    2.000551000   4.117350000   6.708825000
H    1.313063000   3.319095000   8.990695000
27

H   11.373792000   0.376451000   7.154609000
C   10.485537000  -0.093075000   6.713059000
H   10.347626000   0.296395000   5.700821000
H   10.659346000  -1.174734000   6.655508000
N    9.310209000   0.200335000   7.508140000
C    9.317654000  -0.232110000   8.897521000
C    8.240503000   0.795308000   6.969454000
H    9.076294000   0.602896000   9.562355000
H   10.317871000  -0.584501000   9.156245000
H    8.600846000  -1.044487000   9.069070000
H    8.343866000   1.073056000   5.922579000
C    7.048501000   1.095816000   7.585919000
H    6.883550000   0.859466000   8.626651000
C    6.044891000   1.789560000   6.819382000
O    6.253185000   2.120947000   5.624979000
C    4.748171000   2.209547000   7.454381000
H    5.013724000   3.047378000   5.271153000
C    4.333925000   1.766098000   8.723275000
C    3.885035000   3.078586000   6.741399000
O    4.187689000   3.532346000   5.515982000
H    4.944339000   1.093473000   9.311860000
C    3.124485000   2.176276000   9.246575000
C    2.663829000   3.486635000   7.300878000
F    2.738122000   1.719347000  10.458221000
C    2.276512000   3.036695000   8.550201000
H    2.019011000   4.128458000   6.705673000
H    1.317954000   3.318643000   8.979326000
27

H   11.357428000   0.349561000   7.110378000
C   10.459130000  -0.115590000   6.691194000
H   10.312031000   0.257766000   5.676341000
H   10.619440000  -1.197775000   6.650000000
N    9.298402000   0.205379000   7.496616000
C    9.322961000  -0.190305000   8.895884000
C    8.230793000   0.803878000   6.963035000
H    9.116105000   0.666533000   9.540694000
H   10.317243000  -0.560654000   9.144796000
H    8.590489000  -0.977040000   9.100927000
H    8.319581000   1.065218000   5.913170000
C    7.053176000   1.124057000   7.592291000
H    6.898801000   0.893662000   8.634050000
C    6.049364000   1.821541000   6.835714000
O    6.241152000   2.131469000   5.634056000
C    4.753127000   2.228817000   7.466071000
H    5.044851000   3.100862000   5.304039000
C    4.340409000   1.774747000   8.729825000
C    3.883079000   3.085316000   6.748714000
O    4.191011000   3.554597000   5.535410000
H    4.954884000   1.108917000   9.318573000
C    3.120534000   2.159262000   9.241981000
C    2.649452000   3.463865000   7.298833000
F    2.731143000   1.687470000  10.444816000
C    2.261171000   3.001523000   8.541672000
H    1.998987000   4.093078000   6.700786000
H    1.294823000   3.259484000   8.961742000
27

H   11.354051000   0.374847000   7.116421000
C   10.462672000  -0.098035000   6.691137000
H   10.313765000   0.279852000   5.678190000
H   10.634944000  -1.178069000   6.644178000
N    9.295791000   0.205263000   7.494921000
C    9.321558000  -0.197123000   8.891928000
C    8.223412000   0.793685000   6.961378000
H    9.088818000   0.650692000   9.539541000
H   10.323487000  -0.543049000   9.145106000
H    8.607223000  -1.002942000   9.087947000
H    8.315298000   1.067788000   5.915084000
C    7.043432000   1.101199000   7.590617000
H    6.885964000   0.861035000   8.629527000
C    6.048124000   1.812121000   6.840806000
O    6.240703000   2.117599000   5.637972000
C    4.751951000   2.221168000   7.468498000
H    5.046462000   3.077375000   5.300349000
C    4.337378000   1.774429000   8.733611000
C    3.885909000   3.080616000   6.749651000
O    4.196246000   3.545319000   5.534399000
H    4.948095000   1.109149000   9.326969000
C    3.120748000   2.170281000   9.243136000
C    2.655789000   3.469199000   7.297153000
F    2.730034000   1.705154000  10.449902000
C    2.265468000   3.014829000   8.541978000
H    2.009715000   4.101410000   6.697885000
H    1.302426000   3.281930000   8.963284000
27

H   11.354636000   0.369232000   7.116627000
C   10.463053000  -0.103015000   6.691067000
H   10.314643000   0.275089000   5.678128000
H   10.634629000  -1.183157000   6.644021000
N    9.296172000   0.200951000   7.494599000
C    9.321331000  -0.201619000   8.891564000
C    8.224311000   0.790139000   6.960861000
H    9.088986000   0.646272000   9.539221000
H   10.322970000  -0.548230000   9.144948000
H    8.606419000  -1.006992000   9.087311000
H    8.316634000   1.064306000   5.914622000
C    7.044377000   1.098351000   7.589845000
H    6.886495000   0.858167000   8.628688000
C    6.049720000   1.810014000   6.839873000
O    6.242797000   2.115509000   5.637123000
C    4.753660000   2.219836000   7.467294000
H    5.049268000   3.076108000   5.299320000
C    4.338482000   1.773218000   8.732251000
C    3.888359000   3.079936000   6.748335000
O    4.199301000   3.544580000   5.533216000
H    4.948617000   1.107467000   9.325681000
C    3.121986000   2.169805000   9.241523000
C    2.658359000   3.469259000   7.295580000
F    2.730669000   1.704791000  10.448137000
C    2.267432000   3.014997000   8.540254000
H    2.012847000   4.101965000   6.696228000
H    1.304462000   3.282679000   8.961355000
27

H   11.355672000   0.356864000   7.114957000
C   10.459708000  -0.107329000   6.690379000
H   10.312604000   0.272416000   5.677993000
H   10.621842000  -1.188787000   6.642515000
N    9.296612000   0.206400000   7.495835000
C    9.319790000  -0.199719000   8.891584000
C    8.225398000   0.795541000   6.961554000
H    9.066048000   0.641555000   9.539312000
H   10.326310000  -0.526890000   9.151551000
H    8.618481000  -1.018717000   9.080350000
H    8.318547000   1.070017000   5.915679000
C    7.044481000   1.099699000   7.589498000
H    6.884660000   0.856636000   8.627234000
C    6.050366000   1.808769000   6.839234000
O    6.249569000   2.128136000   5.641519000
C    4.756300000   2.221312000   7.468166000
H    5.048062000   3.073684000   5.298386000
C    4.342406000   1.775686000   8.733294000
C    3.889130000   3.079580000   6.749481000
O    4.198337000   3.544449000   5.533042000
H    4.952970000   1.111845000   9.328399000
C    3.125106000   2.170718000   9.240518000
C    2.658473000   3.466420000   7.294487000
F    2.734882000   1.703930000  10.447680000
C    2.268154000   3.012600000   8.539574000
H    2.011632000   4.096720000   6.694481000
H    1.305072000   3.278125000   8.960973000
27

H   11.356611000   0.354849000   7.121233000
C   10.461058000  -0.108500000   6.694871000
H   10.315315000   0.272738000   5.682848000
H   10.622972000  -1.189931000   6.645654000
N    9.297038000   0.204373000   7.499324000
C    9.318369000  -0.203758000   8.894516000
C    8.226644000   0.794559000   6.964555000
H    9.064036000   0.636650000   9.543136000
H   10.324479000  -0.531564000   9.155269000
H    8.616614000  -1.022845000   9.081229000
H    8.321168000   1.070514000   5.919193000
C    7.045022000   1.098122000   7.591462000
H    6.883844000   0.853609000   8.628647000
C    6.052027000   1.808528000   6.840978000
O    6.252807000   2.129564000   5.643974000
C    4.757284000   2.220502000   7.468888000
H    5.051974000   3.075917000   5.300702000
C    4.341697000   1.773165000   8.732857000
C    3.891233000   3.080028000   6.750357000
O    4.202078000   3.546565000   5.534974000
H    4.951346000   1.108310000   9.327768000
C    3.123866000   2.167784000   9.239129000
C    2.659997000   3.466403000   7.294383000
F    2.732016000   1.699362000  10.445131000
C    2.268007000   3.010895000   8.538327000
H    2.014068000   4.097733000   6.694477000
H    1.304468000   3.276064000   8.958905000
27

H   11.359928000   0.351892000   7.125817000
C   10.462547000  -0.104567000   6.696318000
H   10.319047000   0.282793000   5.686453000
H   10.619562000  -1.186232000   6.641327000
N    9.300008000   0.210114000   7.502244000
C    9.318560000  -0.212399000   8.893003000
C    8.228235000   0.798174000   6.967252000
H    9.029321000   0.611984000   9.546526000
H   10.332089000  -0.509100000   9.162807000
H    8.641428000  -1.055463000   9.063601000
H    8.324994000   1.078155000   5.923373000
C    7.044085000   1.097373000   7.591599000
H    6.881145000   0.852164000   8.628129000
C    6.051846000   1.806983000   6.839626000
O    6.249971000   2.119271000   5.640521000
C    4.756594000   2.220180000   7.467310000
H    5.045629000   3.072230000   5.297472000
C    4.342735000   1.776950000   8.733130000
C    3.888262000   3.077013000   6.748241000
O    4.195991000   3.541930000   5.530617000
H    4.952641000   1.114523000   9.330163000
C    3.126318000   2.174563000   9.240323000
C    2.658621000   3.465873000   7.292823000
F    2.737733000   1.710678000  10.449430000
C    2.269189000   3.015575000   8.539692000
H    2.012074000   4.095937000   6.692612000
H    1.307482000   3.283040000   8.962376000
27

H   11.360290000   0.347393000   7.134569000
C   10.463447000  -0.107171000   6.701951000
H   10.322175000   0.283320000   5.692977000
H   10.619850000  -1.188771000   6.644013000
N    9.299546000   0.205865000   7.506552000
C    9.315103000  -0.220840000   8.896066000
C    8.229210000   0.796249000   6.971242000
H    9.025137000   0.601769000   9.551501000
H   10.327907000  -0.519029000   9.166953000
H    8.637080000  -1.063959000   9.062808000
H    8.328191000   1.079301000   5.928400000
C    7.044043000   1.094362000   7.594177000
H    6.878918000   0.846147000   8.629645000
C    6.053744000   1.806894000   6.842408000
O    6.254417000   2.122653000   5.644636000
C    4.757545000   2.219070000   7.468806000
H    5.051379000   3.077445000   5.302108000
C    4.340922000   1.772313000   8.732478000
C    3.891186000   3.078642000   6.750625000
O    4.201600000   3.547011000   5.535007000
H    4.949222000   1.107687000   9.328703000
C    3.123782000   2.169215000   9.238492000
C    2.660743000   3.466687000   7.293976000
F    2.732530000   1.701958000  10.445438000
C    2.268581000   3.012903000   8.538724000
H    2.015788000   4.098985000   6.694403000
H    1.306228000   3.279741000   8.960335000
27

H   11.369883000   0.331383000   7.133270000
C   10.462542000  -0.096745000   6.696622000
H   10.323504000   0.315196000   5.696165000
H   10.598088000  -1.179485000   6.617886000
N    9.310000000   0.225307000   7.514402000
C    9.324950000  -0.247434000   8.888505000
C    8.233596000   0.810657000   6.984279000
H    8.929689000   0.515445000   9.558046000
H   10.355139000  -0.444999000   9.186799000
H    8.733147000  -1.161296000   9.006012000
H    8.334926000   1.107906000   5.945977000
C    7.042364000   1.092748000   7.603168000
H    6.872641000   0.835441000   8.635158000
C    6.052558000   1.804569000   6.851053000
O    6.247796000   2.114680000   5.652147000
C    4.755891000   2.219714000   7.475929000
H    5.049837000   3.049550000   5.299046000
C    4.338323000   1.788781000   8.744280000
C    3.888204000   3.067908000   6.747612000
O    4.199926000   3.520723000   5.523954000
H    4.944303000   1.133437000   9.352328000
C    3.120689000   2.193638000   9.242878000
C    2.657914000   3.463278000   7.282533000
F    2.730399000   1.741594000  10.457137000
C    2.264885000   3.027105000   8.534124000
H    2.013779000   4.087396000   6.674341000
H    1.303590000   3.299346000   8.953342000
27

H   11.369237000   0.327689000   7.156880000
C   10.464022000  -0.095727000   6.711318000
H   10.331023000   0.325182000   5.713777000
H   10.599078000  -1.177851000   6.623765000
N    9.307132000   0.220125000   7.525370000
C    9.313871000  -0.264774000   8.895294000
C    8.234263000   0.811128000   6.994357000
H    8.915472000   0.492508000   9.569314000
H   10.342179000  -0.465914000   9.197664000
H    8.720622000  -1.179100000   9.001344000
H    8.341744000   1.117466000   5.959319000
C    7.039779000   1.088818000   7.608954000
H    6.863976000   0.822540000   8.637645000
C    6.054875000   1.808173000   6.857572000
O    6.257186000   2.128707000   5.662586000
C    4.755039000   2.218954000   7.478737000
H    5.062059000   3.067760000   5.310992000
C    4.329903000   1.777192000   8.740833000
C    3.892234000   3.074355000   6.753053000
O    4.211292000   3.537700000   5.535242000
H    4.931854000   1.115937000   9.346480000
C    3.109807000   2.178731000   9.236084000
C    2.659268000   3.466098000   7.284469000
F    2.712237000   1.716312000  10.444059000
C    2.258762000   3.019222000   8.529899000
H    2.019137000   4.096163000   6.678187000
H    1.295336000   3.288618000   8.946053000
27

H   11.368455000   0.317996000   7.162336000
C   10.462750000  -0.104843000   6.716998000
H   10.334045000   0.311045000   5.716702000
H   10.594260000  -1.188073000   6.636045000
N    9.304968000   0.219256000   7.526651000
C    9.307982000  -0.255967000   8.900148000
C    8.235234000   0.810948000   6.990175000
H    8.913882000   0.507964000   9.569513000
H   10.334928000  -0.461870000   9.204016000
H    8.709701000  -1.166245000   9.011687000
H    8.344475000   1.111152000   5.953344000
C    7.040736000   1.095056000   7.601859000
H    6.862963000   0.831605000   8.631027000
C    6.056041000   1.813558000   6.848450000
O    6.260119000   2.133634000   5.652819000
C    4.756334000   2.221552000   7.470884000
H    5.054935000   3.084457000   5.303592000
C    4.336888000   1.773836000   8.733118000
C    3.889967000   3.079683000   6.751355000
O    4.202340000   3.549218000   5.535387000
H    4.943061000   1.110463000   9.332463000
C    3.117668000   2.169210000   9.235573000
C    2.657965000   3.466115000   7.291252000
F    2.725369000   1.700215000  10.442284000
C    2.262593000   3.011418000   8.535417000
H    2.014230000   4.098074000   6.690516000
H    1.299502000   3.276551000   8.955632000
27

H   11.369174000   0.313217000   7.167233000
C   10.463396000  -0.109760000   6.722174000
H   10.335065000   0.305068000   5.721390000
H   10.594497000  -1.193131000   6.642452000
N    9.305572000   0.215693000   7.531224000
C    9.308112000  -0.258007000   8.905249000
C    8.236184000   0.807210000   6.993868000
H    8.914173000   0.506822000   9.573683000
H   10.334913000  -0.463976000   9.209561000
H    8.709449000  -1.167924000   9.017673000
H    8.345761000   1.106220000   5.956727000
C    7.041670000   1.092467000   7.604986000
H    6.863577000   0.830229000   8.634408000
C    6.057415000   1.810520000   6.850573000
O    6.261870000   2.129188000   5.654630000
C    4.757739000   2.219716000   7.472281000
H    5.057133000   3.080098000   5.304095000
C    4.337852000   1.773566000   8.734923000
C    3.891861000   3.077389000   6.751618000
O    4.204673000   3.545451000   5.535196000
H    4.943639000   1.110621000   9.335132000
C    3.118683000   2.169978000   9.236683000
C    2.659898000   3.464905000   7.290828000
F    2.725947000   1.702477000  10.443832000
C    2.264086000   3.011744000   8.535414000
H    2.016537000   4.096450000   6.689256000
H    1.301012000   3.277723000   8.955132000
27

H   11.373183000   0.303178000   7.176789000
C   10.464329000  -0.106272000   6.725217000
H   10.343177000   0.319483000   5.728074000
H   10.585203000  -1.190203000   6.635921000
N    9.308156000   0.223432000   7.535266000
C    9.305170000  -0.269905000   8.902196000
C    8.238726000   0.814211000   6.996326000
H    8.863342000   0.464933000   9.573475000
H   10.334400000  -0.434178000   9.224521000
H    8.746648000  -1.207743000   8.989177000
H    8.350840000   1.117763000   5.960494000
C    7.041360000   1.095706000   7.603298000
H    6.859663000   0.830511000   8.631252000
C    6.055884000   1.811208000   6.847304000
O    6.261372000   2.127946000   5.650529000
C    4.757148000   2.221458000   7.469973000
H    5.053845000   3.073921000   5.303852000
C    4.343429000   1.783546000   8.737776000
C    3.887369000   3.072981000   6.746537000
O    4.196388000   3.533669000   5.527921000
H    4.953402000   1.126217000   9.339927000
C    3.125106000   2.179753000   9.242187000
C    2.655813000   3.460355000   7.288400000
F    2.738236000   1.720385000  10.453756000
C    2.265820000   3.014368000   8.537226000
H    2.008716000   4.086389000   6.684849000
H    1.303164000   3.280843000   8.957978000
27

H   11.368924000   0.299390000   7.192307000
C   10.461289000  -0.106803000   6.735372000
H   10.344102000   0.324270000   5.740041000
H   10.581433000  -1.190371000   6.640847000
N    9.302557000   0.219807000   7.543014000
C    9.294224000  -0.280654000   8.907330000
C    8.235625000   0.814444000   7.003366000
H    8.850718000   0.451106000   9.580861000
H   10.322141000  -0.447621000   9.232452000
H    8.734490000  -1.218383000   8.987424000
H    8.351722000   1.123287000   5.969538000
C    7.036377000   1.093947000   7.607536000
H    6.850763000   0.823569000   8.633438000
C    6.054293000   1.814355000   6.851788000
O    6.264348000   2.137132000   5.657422000
C    4.753744000   2.222628000   7.471966000
H    5.058979000   3.086093000   5.311397000
C    4.335088000   1.778513000   8.735986000
C    3.887371000   3.078771000   6.749898000
O    4.201174000   3.545510000   5.534811000
H    4.942276000   1.117450000   9.336862000
C    3.115359000   2.173282000   9.238121000
C    2.654267000   3.464525000   7.289392000
F    2.723731000   1.707978000  10.445891000
C    2.259396000   3.012411000   8.534477000
H    2.009929000   4.094338000   6.686820000
H    1.295505000   3.277634000   8.953187000
27

H   11.367429000   0.300720000   7.190914000
C   10.461218000  -0.110710000   6.735670000
H   10.343390000   0.315091000   5.738110000
H   10.584885000  -1.194418000   6.646559000
N    9.300760000   0.215785000   7.540714000
C    9.293618000  -0.272579000   8.909475000
C    8.235210000   0.812321000   7.000385000
H    8.875763000   0.476245000   9.581230000
H   10.319640000  -0.465179000   9.225979000
H    8.710304000  -1.194426000   9.002484000
H    8.349894000   1.116692000   5.965030000
C    7.037789000   1.096339000   7.606186000
H    6.853933000   0.828292000   8.633086000
C    6.054328000   1.816810000   6.851485000
O    6.263403000   2.142210000   5.657380000
C    4.753296000   2.221559000   7.471308000
H    5.060217000   3.090009000   5.310955000
C    4.333322000   1.771938000   8.733146000
C    3.888734000   3.080878000   6.750778000
O    4.203446000   3.549646000   5.537720000
H    4.940100000   1.107212000   9.330484000
C    3.113920000   2.165468000   9.236776000
C    2.655880000   3.466381000   7.292537000
F    2.720314000   1.696294000  10.441563000
C    2.260290000   3.009658000   8.535282000
H    2.012502000   4.099560000   6.692303000
H    1.296244000   3.274813000   8.954003000
27

H   11.369855000   0.300484000   7.184481000
C   10.462987000  -0.112524000   6.731981000
H   10.343360000   0.310306000   5.733372000
H   10.586797000  -1.196458000   6.645851000
N    9.303802000   0.216031000   7.538020000
C    9.299104000  -0.268304000   8.908222000
C    8.237180000   0.810691000   6.997738000
H    8.882181000   0.482384000   9.578475000
H   10.325710000  -0.459698000   9.223558000
H    8.716196000  -1.190027000   9.004929000
H    8.350034000   1.112043000   5.961299000
C    7.040707000   1.096174000   7.604723000
H    6.858658000   0.831102000   8.632716000
C    6.055779000   1.814159000   6.849566000
O    6.262749000   2.136098000   5.654157000
C    4.755686000   2.220387000   7.470392000
H    5.058724000   3.082555000   5.306977000
C    4.337965000   1.774370000   8.734256000
C    3.889677000   3.077352000   6.748798000
O    4.202213000   3.542630000   5.533836000
H    4.945930000   1.111567000   9.332522000
C    3.119308000   2.169059000   9.238785000
C    2.657636000   3.464121000   7.291502000
F    2.727864000   1.703329000  10.445611000
C    2.264267000   3.010953000   8.536252000
H    2.013073000   4.095359000   6.690495000
H    1.300859000   3.277085000   8.955819000
27

H   11.370010000   0.303677000   7.185543000
C   10.463627000  -0.108871000   6.731580000
H   10.343660000   0.317183000   5.734346000
H   10.588747000  -1.192390000   6.641951000
N    9.304134000   0.216049000   7.538570000
C    9.300206000  -0.272900000   8.907144000
C    8.236605000   0.810068000   6.999253000
H    8.877529000   0.472510000   9.579492000
H   10.327693000  -0.458287000   9.223122000
H    8.723544000  -1.199091000   9.000321000
H    8.349595000   1.113561000   5.963411000
C    7.039499000   1.093569000   7.605924000
H    6.856776000   0.827081000   8.633479000
C    6.054589000   1.812149000   6.850933000
O    6.262557000   2.134939000   5.655755000
C    4.754863000   2.219866000   7.470991000
H    5.059525000   3.080585000   5.305291000
C    4.337493000   1.777166000   8.736297000
C    3.889323000   3.075870000   6.747347000
O    4.201505000   3.538438000   5.531771000
H    4.945888000   1.115659000   9.335563000
C    3.119100000   2.172862000   9.240501000
C    2.657195000   3.463744000   7.289979000
F    2.727397000   1.710275000  10.448040000
C    2.264133000   3.013234000   8.535530000
H    2.012461000   4.093768000   6.687788000
H    1.300646000   3.280514000   8.954408000
27

H   11.369729000   0.303334000   7.184175000
C   10.463199000  -0.109935000   6.731136000
H   10.342771000   0.314769000   5.733373000
H   10.588376000  -1.193572000   6.642855000
N    9.303999000   0.215922000   7.538163000
C    9.300365000  -0.271018000   8.907467000
C    8.236515000   0.809824000   6.998734000
H    8.879736000   0.476304000   9.579067000
H   10.327870000  -0.457486000   9.222715000
H    8.722198000  -1.196101000   9.002756000
H    8.349293000   1.112797000   5.962707000
C    7.039690000   1.093611000   7.605750000
H    6.857191000   0.826885000   8.633299000
C    6.054958000   1.812827000   6.851146000
O    6.263030000   2.136074000   5.656069000
C    4.754945000   2.219760000   7.471182000
H    5.060188000   3.079560000   5.307432000
C    4.336844000   1.775934000   8.735847000
C    3.889907000   3.076480000   6.748024000
O    4.202842000   3.539151000   5.532739000
H    4.944816000   1.113621000   9.334666000
C    3.118339000   2.171534000   9.239841000
C    2.657739000   3.464530000   7.290405000
F    2.725867000   1.707860000  10.446753000
C    2.263989000   3.013005000   8.535371000
H    2.013464000   4.095302000   6.688481000
H    1.300442000   3.280254000   8.954178000
27

H   11.369729000   0.303334000   7.184175000
C   10.463199000  -0.109935000   6.731136000
H   10.342771000   0.314769000   5.733373000
H   10.588376000  -1.193572000   6.642855000
N    9.303999000   0.215922000   7.538163000
C    9.300365000  -0.271018000   8.907467000
C    8.236515000   0.809824000   6.998734000
H    8.879736000   0.476304000   9.579067000
H   10.327870000  -0.457486000   9.222715000
H    8.722198000  -1.196101000   9.002756000
H    8.349293000   1.112797000   5.962707000
C    7.039690000   1.093611000   7.605750000
H    6.857191000   0.826885000   8.633299000
C    6.054958000   1.812827000   6.851146000
O    6.263030000   2.136074000   5.656069000
C    4.754945000   2.219760000   7.471182000
H    5.060188000   3.079560000   5.307432000
C    4.336844000   1.775934000   8.735847000
C    3.889907000   3.076480000   6.748024000
O    4.202842000   3.539151000   5.532739000
H    4.944816000   1.113621000   9.334666000
C    3.118339000   2.171534000   9.239841000
C    2.657739000   3.464530000   7.290405000
F    2.725867000   1.707860000  10.446753000
C    2.263989000   3.013005000   8.535371000
H    2.013464000   4.095302000   6.688481000
H    1.300442000   3.280254000   8.954178000
27

H   11.369729000   0.303334000   7.184175000
C   10.463199000  -0.109935000   6.731136000
H   10.342771000   0.314769000   5.733373000
H   10.588376000  -1.193572000   6.642855000
N    9.303999000   0.215922000   7.538163000
C    9.300365000  -0.271018000   8.907467000
C    8.236515000   0.809824000   6.998734000
H    8.879736000   0.476304000   9.579067000
H   10.327870000  -0.457486000   9.222715000
H    8.722198000  -1.196101000   9.002756000
H    8.349293000   1.112797000   5.962707000
C    7.039690000   1.093611000   7.605750000
H    6.857191000   0.826885000   8.633299000
C    6.054958000   1.812827000   6.851146000
O    6.263030000   2.136074000   5.656069000
C    4.754945000   2.219760000   7.471182000
H    5.060188000   3.079560000   5.307432000
C    4.336844000   1.775934000   8.735847000
C    3.889907000   3.076480000   6.748024000
O    4.202842000   3.539151000   5.532739000
H    4.944816000   1.113621000   9.334666000
C    3.118339000   2.171534000   9.239841000
C    2.657739000   3.464530000   7.290405000
F    2.725867000   1.707860000  10.446753000
C    2.263989000   3.013005000   8.535371000
H    2.013464000   4.095302000   6.688481000
H    1.300442000   3.280254000   8.954178000
