     533

C  11.221813   4.017167  18.560806
     H  10.756831   4.264714  19.328203
     C  10.592117   4.073579  17.327902
     C  12.538826   3.595555  18.663332
     C  11.268570   3.673836  16.172188
     O   9.310104   4.524198  17.296648
     C  13.241802   3.234094  17.527981
     H  12.949586   3.555239  19.496317
     C  10.601226   3.735702  14.847177
     C  12.604039   3.258713  16.314491
     H   9.092124   4.634896  16.467924
     O  14.548010   2.850300  17.525139
     C  11.271764   3.263989  13.654998
     O   9.455873   4.215314  14.796507
     H  13.071735   2.991026  15.556328
     C  15.284246   2.996340  18.737444
     C  10.719135   3.421963  12.460690
     H  12.099159   2.846455  13.726032
     H  14.965944   2.361913  19.382664
     H  15.167046   3.885899  19.077219
     H  16.215992   2.839262  18.568148
     H   9.905775   3.873510  12.454534
     C  11.195682   2.990999  11.164566
     C  10.441147   3.228014  10.022585
     C  12.407263   2.347908  10.946730
     C  10.808785   2.815857   8.778315
     H   9.641059   3.692698  10.112797
     C  12.814815   1.944589   9.707195
     H  12.962841   2.184549  11.675533
     H  10.246823   2.981143   8.055195
     C  12.006681   2.155931   8.575159
     H  13.639338   1.524125   9.610827
     N  12.374592   1.711690   7.332074
     C  11.513040   1.912700   6.179201
     C  13.656019   1.100655   7.097664
     H  10.651626   1.525672   6.352759
     H  11.904832   1.491453   5.410382
     H  11.414310   2.852019   6.014166
     H  13.791805   0.389302   7.728441
     H  13.683692   0.746395   6.205957
     H  14.347405   1.758488   7.202793
     C  13.605242  12.598101   5.014489
     H  13.194482  12.638416   4.181502
     C  12.902266  12.959562   6.149840
     C  14.922255  12.176489   5.117013
     C  13.540029  12.934943   7.363329
     O  11.596058  13.343356   6.152682
     H  15.387236  11.928943   4.349616
     C  15.551950  12.120076   6.349918
     H  13.072332  13.202629   8.121492
     C  14.875498  12.519819   7.505633
     C  10.859821  13.197316   4.940377
     O  16.833963  11.669458   6.381173
     C  15.542842  12.457953   8.830644
     H  10.977023  12.307757   4.600600
     H   9.928075  13.354393   5.109674
     H  11.178123  13.831742   4.295156
     H  17.051943  11.558760   7.209896
     C  14.872304  12.929667  10.022822
     O  16.688194  11.978342   8.881313
     H  14.044909  13.347201   9.951788
     C  15.424932  12.771692  11.217130
     C  14.948387  13.202657  12.513254
     H  16.238293  12.320147  11.223287
     C  13.736805  13.845748  12.731091
     C  15.702921  12.965642  13.655235
     H  13.181227  14.009106  12.002287
     C  13.329254  14.249067  13.970625
     C  15.335281  13.377798  14.899506
     H  16.503008  12.500957  13.565023
     H  12.504729  14.669530  14.066993
     C  14.137387  14.037725  15.102662
     H  15.897244  13.212513  15.622625
     N  13.769477  14.481966  16.345747
     C  12.488049  15.093001  16.580156
     C  14.631028  14.280955  17.498619
     H  11.796663  14.435168  16.475027
     H  12.460375  15.447261  17.471865
     H  12.352262  15.804354  15.949379
     H  15.492443  14.667984  17.325062
     H  14.239236  14.702203  18.267439
     H  14.729757  13.341637  17.663654
     H   3.626035   2.991026  15.556328
     C   3.158340   3.258713  16.314491
     C   3.796102   3.234094  17.527981
     C   1.822870   3.673836  16.172188
     C   3.093126   3.595555  18.663332
     O   5.102310   2.850300  17.525139
     C   1.146418   4.073579  17.327902
     C   1.155526   3.735702  14.847177
     H   3.503886   3.555239  19.496317
     C   1.776114   4.017167  18.560806
     C   5.838547   2.996340  18.737444
     O  -0.135595   4.524198  17.296648
     C   1.826064   3.263989  13.654998
     O   0.010174   4.215314  14.796507
     H   1.311131   4.264714  19.328203
     H   5.721345   3.885899  19.077219
     H   6.770293   2.839262  18.568148
     H   5.520245   2.361913  19.382664
     H  -0.353576   4.634896  16.467924
     H   2.653460   2.846455  13.726032
     C   1.273436   3.421963  12.460690
     C   1.749982   2.990999  11.164566
     H   0.460075   3.873510  12.454534
     C   2.961563   2.347908  10.946730
     C   0.995447   3.228014  10.022585
     H   3.517142   2.184549  11.675533
     C   3.369115   1.944589   9.707195
     C   1.363086   2.815857   8.778315
     H   0.195359   3.692698  10.112797
     H   4.193639   1.524125   9.610827
     C   2.560982   2.155931   8.575159
     H   0.801124   2.981143   8.055195
     N   2.928892   1.711690   7.332074
     C   4.210320   1.100655   7.097664
     C   2.067340   1.912700   6.179201
     H   4.901706   1.758488   7.202793
     H   4.237992   0.746395   6.205957
     H   4.346105   0.389302   7.728441
     H   1.205926   1.525672   6.352759
     H   2.459132   1.491453   5.410382
     H   1.968611   2.852019   6.014166
     C   6.097142  12.457953   8.830644
     C   5.429798  12.519819   7.505633
     C   5.426604  12.929667  10.022822
     O   7.242495  11.978342   8.881313
     C   6.106251  12.120076   6.349918
     C   4.094329  12.934943   7.363329
     C   5.979233  12.771692  11.217130
     H   4.599209  13.347201   9.951788
     C   5.476555  12.176489   5.117013
     O   7.388264  11.669458   6.381173
     C   3.456566  12.959562   6.149840
     H   3.626633  13.202629   8.121492
     H   6.792593  12.320147  11.223287
     C   5.502687  13.202657  12.513254
     H   5.941536  11.928943   4.349616
     C   4.159542  12.598101   5.014489
     H   7.606244  11.558760   7.209896
     O   2.150358  13.343356   6.152682
     C   6.257221  12.965642  13.655235
     C   4.291105  13.845748  12.731091
     H   3.748782  12.638416   4.181502
     C   1.414122  13.197316   4.940377
     C   5.889582  13.377798  14.899506
     H   7.057309  12.500957  13.565023
     H   3.735527  14.009106  12.002287
     C   3.883554  14.249067  13.970625
     H   0.482375  13.354393   5.109674
     H   1.531323  12.307757   4.600600
     H   1.732424  13.831742   4.295156
     H   6.451545  13.212513  15.622625
     C   4.691688  14.037725  15.102662
     H   3.059030  14.669530  14.066993
     N   4.323777  14.481966  16.345747
     C   3.042349  15.093001  16.580156
     C   5.185328  14.280955  17.498619
     H   2.350964  14.435168  16.475027
     H   3.014675  15.447261  17.471865
     H   2.906563  15.804354  15.949379
     H   5.284058  13.341637  17.663654
     H   6.046743  14.667984  17.325062
     H   4.793536  14.702203  18.267439
     H   8.404793  14.386750   7.728441
     C   8.269007  15.098103   7.097664
     H   8.296680  14.743843   6.205957
     H   8.960394  15.755936   7.202793
     N   6.987579  15.709138   7.332074
     C   6.126028  15.910149   6.179201
     C   6.619669  16.153378   8.575159
     H   5.264614  15.523120   6.352759
     H   6.517820  15.488901   5.410382
     H   6.027299  16.849466   6.014166
     C   5.421773  16.813305   8.778315
     C   7.427802  15.942037   9.707195
     H   4.859811  16.978590   8.055195
     C   5.054135  17.225462  10.022585
     C   7.020251  16.345356  10.946730
     H   8.252327  15.521573   9.610827
     H   4.254047  17.690145  10.112797
     C   5.808670  16.988447  11.164566
     H   7.575830  16.181997  11.675533
     C   5.332123  17.419411  12.460690
     H   4.518763  17.870958  12.454534
     C   5.884752  17.261436  13.654998
     C   5.214214  17.733150  14.847177
     H   6.712148  16.843903  13.726032
     O   4.068861  18.212761  14.796507
     C   5.881558  17.671284  16.172188
     C   5.205105  18.071026  17.327902
     C   7.217027  17.256161  16.314491
     O   3.923092  18.521645  17.296648
     C   5.834801  18.014614  18.560806
     H   7.684723  16.988474  15.556328
     C   7.854790  17.231541  17.527981
     H   3.705112  18.632343  16.467924
     H   5.369819  18.262161  19.328203
     C   7.151814  17.593002  18.663332
     O   9.160997  16.847748  17.525139
     H   7.562573  17.552687  19.496317
     C   9.897234  16.993788  18.737444
     H   9.578932  16.359360  19.382664
     H   9.780033  17.883347  19.077219
     H  10.828981  16.836710  18.568148
     H   8.293575   1.806906  15.949379
     C   8.429361   1.095553  16.580156
     H   7.737976   0.437720  16.475027
     H   8.401688   1.449813  17.471865
     N   9.710789   0.484518  16.345747
     C  10.078699   0.040277  15.102662
     C  10.572340   0.283507  17.498619
     C   9.270567   0.251619  13.970625
     C  11.276594  -0.619650  14.899506
     H  10.671070  -0.655811  17.663654
     H  11.433756   0.670536  17.325062
     H  10.180548   0.704755  18.267439
     H   8.446041   0.672082  14.066993
     C   9.678118  -0.151700  12.731091
     C  11.644234  -1.031806  13.655235
     H  11.838556  -0.784935  15.622625
     H   9.122540   0.011658  12.002287
     C  10.889699  -0.794791  12.513254
     H  12.444321  -1.496490  13.565023
     C  11.366245  -1.225756  11.217130
     C  10.813616  -1.067781  10.022822
     H  12.179605  -1.677301  11.223287
     H   9.986221  -0.650247   9.951788
     C  11.484154  -1.539495   8.830644
     C  10.816811  -1.477629   7.505633
     O  12.629507  -2.019106   8.881313
     C   9.481340  -1.062505   7.363329
     C  11.493263  -1.877372   6.349918
     C   8.843578  -1.037886   6.149840
     H   9.013645  -0.794819   8.121492
     C  10.863567  -1.820959   5.117013
     O  12.775276  -2.327990   6.381173
     O   7.537370  -0.654092   6.152682
     C   9.546555  -1.399347   5.014489
     H  11.328548  -2.068505   4.349616
     H  12.993256  -2.438688   7.209896
     C   6.801134  -0.800132   4.940377
     H   9.135794  -1.359032   4.181502
     H   5.869387  -0.643055   5.109674
     H   6.918335  -1.689691   4.600600
     H   7.119436  -0.165706   4.295156
     C  10.922993  10.067917   7.253937
     H  10.833952   9.377616   7.915495
     H  10.055079  10.308808   6.923395
     H  11.338377  10.838148   7.650304
     O  11.725050   9.597607   6.182516
     C  13.015557   9.216619   6.481566
     C  13.584668   9.186604   7.712340
     C  13.763661   8.839793   5.376760
     H  13.078927   9.441248   8.450614
     C  14.912561   8.782917   7.902472
     H  13.378777   8.870394   4.529567
     C  15.055923   8.424189   5.513854
     C  15.651176   8.386769   6.770436
     C  15.562070   8.736053   9.223222
     H  15.540934   8.164269   4.763977
     O  16.938728   7.951522   6.846679
     C  14.850832   9.113966  10.430317
     O  16.757439   8.369397   9.302542
     H  17.126993   8.089544   7.685821
     C  15.459936   9.067121  11.630546
     H  13.964811   9.391642  10.375621
     C  14.952127   9.428997  12.936378
     H  16.337233   8.758079  11.618707
     C  13.681887   9.947781  13.172208
     C  15.788940   9.286737  14.043552
     C  13.280778  10.326915  14.422634
     H  13.090340  10.039824  12.459269
     C  15.406631   9.648640  15.304396
     H  16.639782   8.932137  13.917824
     H  12.427665  10.676591  14.540549
     C  14.134321  10.197802  15.535728
     H  15.993482   9.531248  16.015678
     N  13.744971  10.605956  16.782127
     C  12.428353  11.137360  17.018196
     C  14.602714  10.381326  17.936895
     H  12.282098  11.894795  16.446613
     H  12.353394  11.410051  17.935949
     H  11.771526  10.463441  16.830194
     H  14.186180  10.747879  18.719685
     H  14.738253   9.439213  18.056705
     H  15.449791  10.811780  17.793882
     C   5.775376   6.125739  16.423883
     H   5.864416   6.816039  15.762324
     H   6.643290   5.884847  16.754425
     H   5.359992   5.355508  16.027517
     O   4.973319   6.596049  17.495304
     C   3.682810   6.977037  17.196255
     C   3.113701   7.007051  15.965480
     C   2.934707   7.353862  18.301062
     H   3.619441   6.752408  15.227207
     C   1.785808   7.410739  15.775348
     C   1.642447   7.769467  18.163967
     H   3.319592   7.323262  19.148252
     C   1.136299   7.457603  14.454598
     C   1.047191   7.806887  16.907385
     H   1.157434   8.029387  18.913843
     C   1.847537   7.079689  13.247503
     O  -0.059069   7.824258  14.375279
     O  -0.240359   8.242134  16.831141
     C   1.238432   7.126535  12.047276
     H   2.733557   6.802015  13.302199
     H  -0.428624   8.104112  15.992001
     C   1.746242   6.764658  10.741443
     H   0.361135   7.435577  12.059114
     C   3.016482   6.245874  10.505612
     C   0.909428   6.906919   9.634268
     C   3.417591   5.866741   9.255186
     H   3.608028   6.153831  11.218552
     C   1.291738   6.545016   8.373425
     H   0.058586   7.261518   9.759996
     H   4.270704   5.517065   9.137271
     C   2.564047   5.995855   8.142092
     H   0.704886   6.662407   7.662142
     N   2.953397   5.587700   6.895692
     C   4.270015   5.056296   6.659624
     C   2.095655   5.812330   5.740924
     H   4.416271   4.298860   7.231206
     H   4.344975   4.783605   5.741871
     H   4.926842   5.730215   6.847626
     H   2.512188   5.445777   4.958136
     H   1.248576   5.381876   5.883938
     H   1.960115   6.754443   5.621114
     C   4.138968   9.186604   7.712340
     C   3.569858   9.216619   6.481566
     C   5.466862   8.782917   7.902472
     H   3.633227   9.441248   8.450614
     C   4.317962   8.839793   5.376760
     O   2.279350   9.597607   6.182516
     C   6.205477   8.386769   6.770436
     C   6.116370   8.736053   9.223222
     C   5.610223   8.424189   5.513854
     H   3.933076   8.870394   4.529567
     C   1.477293  10.067917   7.253937
     O   7.493028   7.951522   6.846679
     C   5.405132   9.113966  10.430317
     O   7.311738   8.369397   9.302542
     H   6.095234   8.164269   4.763977
     H   1.388252   9.377616   7.915495
     H   0.609379  10.308808   6.923395
     H   1.892677  10.838148   7.650304
     H   7.681293   8.089544   7.685821
     H   4.519112   9.391642  10.375621
     C   6.014237   9.067121  11.630546
     H   6.891533   8.758079  11.618707
     C   5.506428   9.428997  12.936378
     C   6.343241   9.286737  14.043552
     C   4.236187   9.947781  13.172208
     H   7.194083   8.932137  13.917824
     C   5.960931   9.648640  15.304396
     C   3.835078  10.326915  14.422634
     H   3.644640  10.039824  12.459269
     H   6.547782   9.531248  16.015678
     C   4.688622  10.197802  15.535728
     H   2.981965  10.676591  14.540549
     N   4.299272  10.605956  16.782127
     C   5.157014  10.381326  17.936895
     C   2.982654  11.137360  17.018196
     H   5.292553   9.439213  18.056705
     H   6.004091  10.811780  17.793882
     H   4.740480  10.747879  18.719685
     H   2.325827  10.463441  16.830194
     H   2.907694  11.410051  17.935949
     H   2.836398  11.894795  16.446613
     C   7.400844   7.358771  19.636726
     H   6.661800   7.919998  19.394503
     H   7.095609   6.454116  19.737831
     H   8.069925   7.394397  18.949360
     O   7.952214   7.807464  20.852346
     C   8.260532   9.134123  20.984941
     C   8.458751   9.569510  22.298588
     C   8.381329  10.032341  19.954247
     H   8.423790   8.952294  22.993530
     C   8.702679  10.875189  22.582247
     C   8.635198  11.397410  20.214230
     H   8.293579   9.738012  19.074852
     H   8.836113  11.144386  23.462351
     C   8.753281  11.800989  21.562208
     C   8.816883  12.378871  19.130259
     O   8.935190  13.108545  21.896301
     C   8.965636  11.962572  17.750788
     O   8.877571  13.593702  19.430492
     H   8.854783  13.566855  21.163237
     H   8.926353  11.058432  17.540529
     C   9.160598  12.859892  16.770763
     H   9.138555  13.756414  17.019617
     C   9.401707  12.585504  15.366905
     C   9.577477  13.626395  14.470936
     C   9.448030  11.298693  14.833918
     H   9.544934  14.499958  14.789166
     C   9.799374  13.417511  13.124379
     C   9.652182  11.063639  13.507012
     H   9.336212  10.573385  15.404790
     H   9.927194  14.146322  12.561084
     C   9.833925  12.123027  12.599204
     H   9.670263  10.186512  13.195648
     N  10.004045  11.891315  11.263065
     C   9.877941  10.564800  10.709478
     C  10.211151  12.975146  10.332054
     H  10.659797  10.051921  10.929682
     H   9.790896  10.623265   9.755262
     H   9.101548  10.138325  11.076484
     H   9.458282  13.569962  10.361414
     H  10.305583  12.621325   9.445083
     H  11.007229  13.455132  10.572146
     C   9.297524   8.834885   4.041093
     H  10.036569   8.273658   4.283317
     H   9.602760   9.739540   3.939990
     H   8.628444   8.799258   4.728461
     O   8.746155   8.386192   2.825474
     C   8.437837   7.059534   2.692879
     C   8.239617   6.624145   1.379233
     C   8.317040   6.161315   3.723574
     H   8.274578   7.241361   0.684290
     C   7.995689   5.318467   1.095573
     C   8.063170   4.796246   3.463591
     H   8.404789   6.455644   4.602969
     H   7.862254   5.049269   0.215469
     C   7.945088   4.392666   2.115613
     C   7.881486   3.814785   4.547562
     O   7.763177   3.085110   1.781520
     C   7.732731   4.231084   5.927032
     O   7.820797   2.599953   4.247327
     H   7.843585   2.626801   2.514584
     H   7.772016   5.135224   6.137290
     C   7.537771   3.333765   6.907057
     H   7.559814   2.437242   6.658203
     C   7.296661   3.608152   8.310915
     C   7.120891   2.567261   9.206884
     C   7.250339   4.894963   8.843903
     H   7.153434   1.693698   8.888654
     C   6.898994   2.776145  10.553441
     C   7.046187   5.130017  10.170808
     H   7.362156   5.620270   8.273030
     H   6.771174   2.047334  11.116736
     C   6.864442   4.070629  11.078616
     H   7.028105   6.007144  10.482172
     N   6.694324   4.302341  12.414755
     C   6.820426   5.628857  12.968342
     C   6.487217   3.218509  13.345766
     H   6.038571   6.141735  12.748138
     H   6.907472   5.570390  13.922558
     H   7.596820   6.055331  12.601336
     H   7.240086   2.623694  13.316405
     H   6.392786   3.572330  14.232737
     H   5.691139   2.738523  13.105674
     C  13.099699   6.230327  21.942945
     C  13.636717   7.581946  21.922110
     O  11.872375   6.060291  21.722979
     C  13.941568   5.058829  22.230633
     C  12.822721   8.610891  21.636791
     H  14.536917   7.731944  22.105614
     C  13.336403   3.797556  22.304979
     C  15.334683   5.161883  22.451309
     H  11.932502   8.382153  21.494726
     C  13.115570  10.003832  21.518166
     O  12.015379   3.613653  22.103008
     C  14.111364   2.674661  22.603558
     C  16.066959   4.041105  22.742546
     H  15.754284   5.989899  22.399218
     C  12.116010  10.879674  21.106409
     C  14.368441  10.573172  21.785961
     H  11.675718   4.408042  22.020372
     H  13.711569   1.837301  22.645466
     C  15.448723   2.796811  22.833942
     O  17.417614   4.029136  23.001345
     H  11.268832  10.536320  20.935928
     C  12.320028  12.221964  20.939718
     C  14.600044  11.910934  21.615719
     H  15.059113  10.028568  22.086670
     H  15.950344   2.044445  23.052727
     C  18.125294   5.252009  22.894794
     H  11.618237  12.764652  20.663633
     C  13.583568  12.784886  21.183599
     H  15.448181  12.250286  21.788330
     H  17.754293   5.891119  23.507339
     H  19.050304   5.106319  23.104816
     H  18.050661   5.588850  21.999062
     N  13.820525  14.113290  21.018089
     C  15.161369  14.642298  21.167971
     C  12.724068  15.042748  20.807121
     H  15.759198  14.168348  20.585497
     H  15.165699  15.575841  20.940664
     H  15.448500  14.534866  22.077200
     H  12.083485  14.947533  21.516035
     H  12.301261  14.852672  19.965137
     H  13.062204  15.940814  20.800964
     C  13.824039   3.971692   2.738103
     C  12.560500   3.408769   2.494221
     C  14.028057   5.313983   2.571411
     H  14.525831   3.429003   3.014186
     C  11.544024   4.282722   2.062101
     N  12.323544   2.080366   2.659729
     C  13.028498   6.189824   2.159654
     H  14.875237   5.657336   2.741892
     H  10.695888   3.943370   1.889490
     C  11.775627   5.620484   1.891858
     C  10.982698   1.551358   2.509849
     C  13.420001   1.150907   2.870699
     C  13.321346   7.582765   2.041028
     H  11.084956   6.165088   1.591149
     H  10.695569   1.658788   1.600621
     H  10.384870   2.025308   3.092324
     H  10.978368   0.617815   2.737156
     H  13.081863   0.252842   2.876855
     H  13.842808   1.340984   3.712682
     H  14.060584   1.246123   2.161785
     C  12.507352   8.611709   1.755710
     H  14.211566   7.811503   2.183095
     H  11.607151   8.461712   1.572207
     C  13.044369   9.963328   1.734874
     C  12.202498  11.134827   1.447188
     O  14.271692  10.133365   1.954841
     C  12.807665  12.396100   1.372840
     C  10.809384  11.031773   1.226511
     C  12.032704  13.518995   1.074263
     O  14.128690  12.580003   1.574812
     C  10.077108  12.152550   0.935274
     H  10.389784  10.203756   1.278602
     C  10.695346  13.396845   0.843878
     H  12.432499  14.356355   1.032353
     H  14.468348  11.785613   1.657447
     O   8.726453  12.164520   0.676475
     H  10.193725  14.149211   0.625094
     C   8.018773  10.941648   0.783026
     H   8.389775  10.302537   0.170480
     H   7.093765  11.087337   0.573003
     H   8.093406  10.604806   1.678757
