148
?
C         10.70573        3.56775        1.11275
C         -0.52820        2.98279        1.37159
H          0.19554        3.13989        0.80931
C         -0.39489        2.17688        2.45948
C         -1.41589        1.92901        3.34449
H         -1.29289        1.37396        4.08112
C          9.84381        2.53068        3.10169
H          9.14434        2.38380        3.69653
C          9.62125        3.35495        1.99619
C          8.31522        3.98076        1.69532
C          7.18621        3.78478        2.58277
H          7.26517        3.18527        3.28964
C          6.03076        4.44556        2.41133
H          6.01227        5.06363        1.71672
C          4.81550        4.31446        3.17181
C          4.63461        3.37362        4.19527
H          5.34740        2.82528        4.43115
C          3.44870        3.23282        4.85933
H          3.37051        2.58803        5.52584
C          2.33893        4.04998        4.55076
C          2.51061        4.99112        3.52140
H          1.80045        5.54225        3.28072
C          3.70801        5.10788        2.86849
H          3.78739        5.74339        2.19384
C          0.99844        2.93678        6.25745
H          1.19640        2.06713        5.90263
H          0.09446        2.95318        6.58040
H          1.60073        3.13267        6.97948
C          0.06954        4.85888        5.00581
H          0.37343        5.75164        5.18695
H         -0.65767        4.64278        5.59384
H         -0.22808        4.80060        4.09449
F          0.80595        1.59150        2.68177
N          1.15577        3.92599        5.21906
O         10.59022        4.33261        0.01984
H          4.60480        4.63453       11.12414
O          8.19671        4.66970        0.65938
C         -0.84886        8.72525        4.46102
C         -3.46099        6.74725       10.03480
C          8.09359        1.58975        6.68652
C         10.38507        8.14029        4.20218
C          7.77294        7.33221        9.77595
C         -3.14034        2.17471        6.94537
H          9.66133        8.29739        4.76446
H          7.04920        7.17511       10.33823
H         -2.41659        2.01761        6.38308
C         10.25176        7.33438        3.11429
C          7.63962        8.13812        8.68806
C         -3.00702        2.98062        8.03326
C         11.27275        7.08651        2.22929
C          8.66062        8.38599        7.80306
C         -4.02802        3.22849        8.91826
H         11.14976        6.53146        1.49266
H          8.53763        8.94104        7.06643
H         -3.90503        3.78354        9.65489
C          0.01305        7.68818        2.47208
C         -2.59908        7.78432        8.04585
C          7.23168        2.62682        8.67547
H          0.71253        7.54130        1.87725
H         -1.89961        7.93120        7.45102
H          6.53221        2.77370        9.27030
C          0.23562        8.51245        3.57758
C         -2.37651        6.96005        9.15135
C          7.00911        1.80255        7.56996
C          1.54165        9.13826        3.87845
C         -1.07049        6.33424        9.45223
C          5.70309        1.17674        7.26909
C          2.67065        8.94228        2.99100
C          0.05852        6.53022        8.56477
C          4.57408        1.37272        8.15655
H          2.59169        8.34277        2.28413
H         -0.02044        7.12973        7.85791
H          4.65304        1.97223        8.86341
C          3.82611        9.60306        3.16245
C          1.21397        5.86944        8.73622
C          3.41863        0.71194        7.98510
H          3.84460       10.22113        3.85705
H          1.23247        5.25137        9.43082
H          3.40013        0.09387        7.29049
C          5.04137        9.47196        2.40196
C          2.42924        6.00054        7.97573
C          2.20336        0.84304        8.74558
C          5.22225        8.53112        1.37851
C          2.61012        6.94138        6.95228
C          2.02248        1.78388        9.76904
F          9.05092        6.74900        2.89201
F          6.43879        8.72350        8.46578
F         -1.80619        3.56600        8.25554
H          4.50947        7.98278        1.14262
H          1.89734        7.48972        6.71640
H          2.73526        2.33222       10.00492
C          6.40816        8.39032        0.71445
C          3.79603        7.08218        6.28822
C          0.83657        1.92468       10.43310
H          6.48635        7.74553        0.04793
H          3.87422        7.72697        5.62171
H          0.75838        2.56947       11.09961
C          7.51794        9.20748        1.02301
C          4.90580        6.26502        6.59678
C         -0.27320        1.10752       10.12454
C          7.34626       10.14862        2.05237
C          4.73412        5.32388        7.62615
C         -0.10152        0.16638        9.09517
H          8.05642        0.38475        2.29305
H          5.44429        4.77275        7.86682
H         -0.81168        9.93025        8.85450
C          6.14886       10.26538        2.70529
C          3.53673        5.20712        8.27906
C          1.09587        0.04962        8.44226
H          6.06948        0.58589        3.37994
H          3.45734        4.57161        8.95371
H          1.17526        9.72911        7.76761
C          3.63416        8.09428       10.46387
C          6.24629        7.37822        4.89009
C          3.61057        2.22072        0.68368
H          3.43620        7.22463       10.81869
H          6.04834        8.24787        5.24492
H          3.80853        3.09037        0.32885
H          4.53814        8.11068       10.14092
H          7.15027        7.36182        4.56715
H          2.70660        2.20432        1.00662
H          3.03188        8.29017        9.74184
H          5.64401        7.18233        4.16807
H          4.21286        2.02483        1.40571
C          9.78733       10.01638        0.56797
C          7.17520        5.45612        6.14174
C         -2.54259        0.29862       10.57958
H          9.48344        0.59414        0.38682
H          6.87131        4.56336        5.96059
H         -2.23870        9.72086       10.76073
H          5.29027        9.80028       11.12748
H          7.90240        5.67222        5.55371
H          1.95446        0.51472        0.02007
H         10.08494        9.95810        1.47928
H          7.47281        5.51440        7.05305
H         -2.84021        0.35690        9.66827
N          8.70109        9.08349        0.35471
N          6.08896        6.38901        5.92849
N         -1.45636        1.23151       10.79283
O         -0.73336        9.49011        5.55393
O         -3.34549        5.98239       11.12770
O          7.97809        0.82489        5.59362
H          0.02781        9.79203        5.59718
H          2.63994        5.68047        0.02341
H          7.21693        0.52297        5.55036
O          1.66015        9.82720        4.91440
O         -0.95198        5.64530       10.48817
O          5.58458        0.48780        6.23315
