160
VESTA_phase_1
C          0.81077        3.32106        7.29504
C          0.30824        4.23789        6.38917
H          0.48531        4.12598        5.48276
C         -0.44746        5.31221        6.79906
C         -0.73331        5.44299        8.15338
H         -1.25924        6.15203        8.44615
C         -0.24512        4.53511        9.06498
H         -0.44085        4.65096        9.96728
C          0.54142        3.43768        8.67119
C          1.10288        2.47904        9.61865
C          7.17708        2.58954        0.24254
H          6.63592        3.28035        0.54882
C          7.69228        1.73118        1.12680
H          8.21705        1.04996        0.77353
C          7.53700        1.72788        2.56604
C          6.83131        2.70161        3.26384
H          6.46667        3.41552        2.79270
C         -2.50034        2.64503        4.62118
H          6.17455        3.31807        5.04630
C         -1.97112        1.59208        5.38315
C         -1.22994        0.62683        4.69195
H         -0.84263       15.64255        5.16190
C         -1.06707        0.70087        3.33503
H         -0.56973        0.04087        2.90829
C         -3.03931        2.46553        7.40362
H         -2.71599        3.35894        7.26749
H         -3.05475        2.27125        8.34352
H         -3.92642        2.38756        7.04602
C         -1.61308        0.45724        7.52246
H         -2.00924       15.34391        7.25345
H         -1.79641        0.61457        8.45047
H         -0.66357        0.41810        7.38633
C         -0.95284        6.32948        5.80903
H         -1.41657        7.02909        6.27682
H         -1.55401        5.90525        5.19323
H         -0.21172        6.70373        5.32719
N         -2.16740        1.53140        6.73305
O          1.58261        2.32249        6.80921
H          1.82113        1.83743        7.42522
O          1.84213        1.55985        9.19310
H         -0.83045       11.98498       10.72244
H          2.33620       11.59203        5.32071
H          3.65196        3.73303        0.08103
C          0.10233       13.17121        9.40615
C          3.26897       10.40579        4.00441
C          2.71918        2.54679        1.39732
C          0.38818       13.30199        8.05183
C          3.55482       10.27501        2.65009
C          2.43333        2.41601        2.75164
H          0.91410       14.01103        7.75905
H          4.08075        9.56597        2.35732
H          1.90741        1.70697        3.04442
C         -0.10001       12.39411        7.14023
C          3.06663       11.18289        1.73849
C          2.92152        3.32389        3.66324
H          0.09571       12.50996        6.23792
H          3.26236       11.06704        0.83619
H          2.72580        3.20804        4.56555
C         -0.88656       11.29668        7.53402
C          2.28009       12.28032        2.13228
C          3.70807        4.42132        3.26945
C         -1.44801       10.33804        6.58655
C          1.71863       13.23896        1.18482
C          4.26952        5.37996        4.21692
C         -1.18893       10.44854        5.15920
C         -4.35557       13.12846       10.56093
C          4.01044        5.26946        5.64427
H         -0.64776       11.13935        4.85292
H         -3.81441       12.43765       10.25465
H          3.46927        4.57865        5.95055
C         -1.70412        9.59018        4.27493
C         -4.87077       13.98682        9.67667
C          4.52563        6.12782        6.52854
H         -2.22889        8.90896        4.62821
H         -5.39554       14.66804       10.02994
H          5.05040        6.80904        6.17526
C         -1.54884        9.58688        2.83569
C         -4.71549       13.99012        8.23743
C          4.37035        6.13112        7.96778
C         -0.84316       10.56061        2.13790
C         -4.00980       13.01639        7.53963
C          3.66467        5.15739        8.66557
C          0.60770       14.18848       10.39618
C          3.77435        9.38852        4.99444
C          2.21381        1.52952        0.40729
H         -0.47852       11.27452        2.60904
H         -3.64516       12.30248        8.01077
H          3.30003        4.44348        8.19443
C          8.48849       10.50403        0.78055
C          5.32185       13.07297        6.18229
C         -5.66698        5.21397       10.02292
H         -0.18639       11.17707        0.35543
H         -3.35304       12.39993        5.75717
H          3.00790        4.54093       10.44804
C          7.95928        9.45108        0.01858
C          4.79263       14.12592        5.42032
C         -5.13777        6.26692       10.78489
C          7.21809        8.48583        0.70979
C          4.05145       15.09117        6.11152
C         -4.39658        7.23217       10.09368
H          6.83078        7.78355        0.23984
H          3.66414        0.07545        5.64157
H         -4.00927        7.93445       10.56363
C          7.05523        8.55987        2.06670
C          3.88858       15.01713        7.46844
C         -4.23372        7.15813        8.73677
H          6.55788        7.89987        2.49344
H          3.39124       15.67713        7.89518
H         -3.73637        7.81813        8.31003
C          2.69417       10.32453        8.80159
C          5.86082       13.25247        3.39985
C          0.12734        5.39347        2.00188
H          2.37085       11.21794        8.93771
H          5.53750       12.35906        3.53598
H          0.45066        4.50006        1.86576
H          2.70961       10.13025        7.86169
H          5.87626       13.44675        2.45995
H          0.11190        5.58775        2.94178
H          3.58128       10.24656        9.15918
H          6.74793       13.33044        3.75745
H         -0.75977        5.47144        1.64429
C          1.26794        8.31624        8.68275
C          4.43459       15.26076        3.28101
C          1.55357        7.40176        2.12072
H          1.66411        7.48491        8.95176
H          4.83075        0.37409        3.55002
H          1.15740        8.23309        1.85171
H          1.45127        8.47357        7.75473
H          4.61792       15.10343        2.35300
H          1.37024        7.24443        3.04874
H          0.31844        8.27710        8.81887
H          3.48508       15.29990        3.41714
H          2.50307        7.44090        1.98460
H          1.07144       14.88809        9.92839
H          4.23808        8.68891        4.52665
H          1.75007        0.82991        0.87508
H          7.54217       13.76425        0.20851
H          4.37552        9.81275        5.61024
H         -4.72066        1.95375       10.59496
H          6.19987       14.56273        0.07454
H          3.03323        9.01427        5.47628
H         -3.37836        1.15527       10.72893
N          1.82227        9.39040        9.47216
N          4.98891       14.18660        4.07042
N          0.99924        6.32760        1.33131
O         -1.92775       10.18149        9.39599
O          1.23890       13.39551        3.99426
O          4.74926        5.53651        1.40748
H         -2.16626        9.69643        8.77998
H          1.00038       13.88057        3.37825
H          4.98777        6.02157        2.02349
O         -2.18726        9.41885        7.01210
O          0.97938       14.15815        1.61037
O          5.00877        6.29915        3.79137
C         -1.15590       11.18006        8.91016
C          2.01074       12.39694        3.50843
C          3.97741        4.53794        1.89331
C         -0.65337       12.09689        9.81603
C          2.51327       11.48011        4.41430
C          3.47488        3.62111        0.98744
