640
C18 H19 N O2
 C    0.810769    3.321056    7.295043
 C    2.010742   12.396944    3.508427
 C   -1.155903   11.180057    8.910163
 C    3.977414    4.537944    1.893308
 C    0.308238    4.237887    6.389173
 C    2.513273   11.480113    4.414298
 C   -0.653372   12.096888    9.816033
 C    3.474883    3.621113    0.987437
 H    0.485310    4.125975    5.482761
 H    2.336200   11.592026    5.320709
 H   -0.830444   11.984975   10.722445
 H    3.651955    3.733025    0.081026
 C   -0.447462    5.312212    6.799056
 C    3.268973   10.405787    4.004415
 C    0.102328   13.171213    9.406150
 C    2.719183    2.546788    1.397321
 C   -0.733312    5.442986    8.153379
 C    3.554822   10.275014    2.650091
 C    0.388178   13.301987    8.051826
 C    2.433333    2.416014    2.751644
 H   -1.259235    6.152026    8.446154
 H    4.080746    9.565975    2.357317
 H    0.914101   14.011025    7.759052
 H    1.907410    1.706975    3.044418
 C   -0.245124    4.535115    9.064976
 C    3.066635   11.182886    1.738494
 C   -0.100010   12.394114    7.140230
 C    2.921521    3.323886    3.663241
 H   -0.440846    4.650956    9.967282
 H    3.262356   11.067044    0.836189
 H    0.095711   12.509956    6.237924
 H    2.725799    3.208044    4.565547
 C    0.541421    3.437684    8.671189
 C    2.280089   12.280316    2.132281
 C   -0.886555   11.296684    7.534016
 C    3.708066    4.421316    3.269454
 C    1.102878    2.479043    9.618654
 C    1.718634   13.238957    1.184817
 C   -1.448011   10.338043    6.586552
 C    4.269522    5.379957    4.216919
 C    7.177081    2.589540    0.242538
 C   -4.355570   13.128460   10.560933
 C   -1.188925   10.448541    5.159197
 C    4.010436    5.269460    5.644273
 H    6.635917    3.280347    0.548816
 H   -3.814406   12.437654   10.254654
 H   -0.647762   11.139347    4.852919
 H    3.469272    4.578653    5.950552
 C    7.692278    1.731181    1.126802
 C   -4.870767   13.986819    9.676668
 C   -1.704122    9.590181    4.274933
 C    4.525633    6.127820    6.528538
 H    8.217048    1.049962    0.773528
 H   -5.395537   14.668038   10.029942
 H   -2.228892    8.908962    4.628207
 H    5.050403    6.809038    6.175264
 C    7.536998    1.727880    2.566040
 C   -4.715487   13.990121    8.237431
 C   -1.548843    9.586880    2.835695
 C    4.370353    6.131120    7.967775
 C    6.831315    2.701610    3.263836
 C   -4.009805   13.016391    7.539635
 C   -0.843160   10.560610    2.137899
 C    3.664670    5.157390    8.665571
 H    6.466674    3.415521    2.792697
 H   -3.645164   12.302479    8.010774
 H   -0.478518   11.274522    2.609038
 H    3.300029    4.443479    8.194432
 C   -2.500335    2.645025    4.621184
 C    5.321846   13.072975    6.182286
 C    8.488491   10.504025    0.780551
 C   -5.666980    5.213975   10.022920
 H    6.174549    3.318070    5.046301
 H   -3.353038   12.399931    5.757169
 H   -0.186394   11.177070    0.355434
 H    3.007904    4.540931   10.448037
 C   -1.971120    1.592076    5.383153
 C    4.792631   14.125924    5.420317
 C    7.959276    9.451077    0.018582
 C   -5.137765    6.266924   10.784888
 C   -1.229935    0.626834    4.691947
 C    4.051446   15.091166    6.111523
 C    7.218091    8.485834    0.709788
 C   -4.396580    7.232166   10.093682
 H   -0.842626   15.642553    5.161899
 H    3.664137    0.075446    5.641572
 H    6.830782    7.783554    0.239837
 H   -4.009271    7.934447   10.563634
 C   -1.067071    0.700866    3.335031
 C    3.888581   15.017135    7.468440
 C    7.055226    8.559866    2.066704
 C   -4.233716    7.158134    8.736766
 H   -0.569727    0.040867    2.908294
 H    3.391237   15.677134    7.895177
 H    6.557882    7.899867    2.493441
 H   -3.736372    7.818133    8.310029
 C   -3.039306    2.465525    7.403618
 C    5.860817   13.252475    3.399852
 C    2.694172   10.324526    8.801588
 C    0.127338    5.393475    2.001883
 H   -2.715989    3.358937    7.267495
 H    5.537500   12.359064    3.535976
 H    2.370855   11.217937    8.937712
 H    0.450656    4.500063    1.865759
 H   -3.054746    2.271251    8.343520
 H    5.876257   13.446749    2.459950
 H    2.709612   10.130252    7.861685
 H    0.111898    5.587749    2.941785
 H   -3.926419    2.387564    7.046023
 H    6.747930   13.330437    3.757447
 H    3.581285   10.246564    9.159183
 H   -0.759774    5.471436    1.644288
 C   -1.613078    0.457237    7.522457
 C    4.434588   15.260764    3.281014
 C    1.267944    8.316236    8.682749
 C    1.553567    7.401764    2.120722
 H   -2.009244   15.343912    7.253450
 H    4.830755    0.374088    3.550020
 H    1.664111    7.484911    8.951756
 H    1.157400    8.233088    1.851716
 H   -1.796408    0.614574    8.450475
 H    4.617919   15.103427    2.352996
 H    1.451274    8.473574    7.754732
 H    1.370237    7.244427    3.048739
 H   -0.663572    0.418099    7.386333
 H    3.485083   15.299902    3.417137
 H    0.318438    8.277099    8.818872
 H    2.503072    7.440901    1.984599
 C   -0.952839    6.329482    5.809026
 C    3.774350    9.388519    4.994444
 C    0.607705   14.188481   10.396180
 C    2.213806    1.529519    0.407291
 H   -1.416574    7.029090    6.276816
 H    4.238085    8.688910    4.526654
 H    1.071440   14.888090    9.928390
 H    1.750070    0.829910    0.875081
 H   -1.554011    5.905253    5.193229
 H    4.375522    9.812748    5.610242
 H    7.542166   13.764253    0.208507
 H   -4.720655    1.953748   10.594964
 H   -0.211719    6.703727    5.327191
 H    3.033230    9.014274    5.476279
 H    6.199874   14.562727    0.074545
 H   -3.378363    1.155273   10.728927
 N   -2.167403    1.531405    6.733047
 N    4.988914   14.186596    4.070424
 N    1.822269    9.390405    9.472159
 N    0.999242    6.327596    1.331311
 O    1.582612    2.322492    6.809212
 O    1.238899   13.395508    3.994259
 O   -1.927746   10.181493    9.395994
 O    4.749257    5.536509    1.407476
 H    1.821127    1.837434    7.425225
 H    1.000384   13.880567    3.378245
 H   -2.166261    9.696434    8.779981
 H    4.987772    6.021566    2.023490
 O    1.842128    1.559854    9.193105
 O    0.979383   14.158146    1.610365
 O   -2.187261    9.418855    7.012101
 O    5.008773    6.299146    3.791370
 C    0.843791    2.589540   11.046008
 C    1.977720   13.128460   -0.242537
 C    7.436167    2.479043   -1.184816
 C   -4.614656   13.238957   11.988287
 C    8.087729    0.700866    3.335031
 C   -5.266219   15.017135    7.468440
 C   -2.099574    8.559866    2.066704
 C    4.921085    7.158134    8.736766
 C    6.654465    2.645025    4.621184
 C   -3.832954   13.072975    6.182286
 C   -0.666309   10.504025    0.780551
 C    3.487820    5.213975   10.022920
 C   -2.323485    2.701610    3.263836
 H   -2.980251    3.318070    5.046301
 H    5.801762   12.399931    5.757169
 C    5.144995   13.016391    7.539635
 C    8.311641   10.560610    2.137899
 H    8.968407   11.177070    0.355434
 C   -5.490130    5.157390    8.665571
 H   -6.146896    4.540931   10.448037
 N    8.155560    9.390405   -1.331311
 N   -5.334048    6.327596   12.134782
 H   -0.842626   -0.075447    5.161899
 H    3.664137   15.793447    5.641572
 C   -1.229935   16.344833    4.691947
 C    4.051446   -0.626834    6.111523
 C   -1.617803    1.727880    2.566040
 C    4.439313   13.990121    8.237431
 C    7.605958    9.586880    2.835695
 C   -4.784447    6.131120    7.967775
 H   -2.009244   -0.374088    7.253450
 H    4.830755   16.092089    3.550020
 C   -1.613078   16.175238    7.522457
 C    4.434588   -0.457236    3.281014
 H   -0.133416   14.562727   10.878016
 H    1.208877   13.764253   11.011977
 H    1.612634    1.953748   -0.208507
 H    2.954926    1.155273   -0.074544
 C    6.940995   14.188481   -0.407290
 C   -4.119484    1.529519   11.210761
 C    1.625986    9.451077   10.822053
 C    1.195525    6.266924   -0.018582
 C    1.358989    1.731181   11.930273
 H    0.302628    3.280347   11.352287
 H    2.518883   12.437654   -0.548817
 C    1.462523   13.986819   -1.126802
 C    6.874711    3.437684   -2.132281
 O    8.175417    1.559854   -1.610366
 O   -5.353906   14.158146   12.413836
 C   -4.053200   12.280316   12.935751
 H    8.585073    0.040867    2.908294
 C    7.924865    0.626834    4.691947
 C   -5.103354   15.091166    6.111523
 H   -5.763563   15.677134    7.895177
 C   -1.936710    8.485834    0.709788
 H   -2.596918    7.899867    2.493441
 H    5.418429    7.818133    8.310029
 C    4.758221    7.232166   10.093682
 C    7.183681    1.592076    5.383153
 C   -4.362169   14.125924    5.420317
 C   -1.195525    9.451077    0.018582
 C    4.017035    6.266924   10.784888
 H   -2.688127    3.415521    2.792697
 H    5.509637   12.302479    8.010774
 H    8.676282   11.274522    2.609038
 H   -5.854771    4.443479    8.194432
 C    7.601233    8.316236   -2.120722
 C    9.027462   10.324526   -2.001883
 C   -6.205951    5.393475   12.805353
 C   -4.779723    7.401764   12.924192
 C   -1.067071   16.418865    3.335031
 C   -1.971120   17.310078    5.383153
 C    4.792631   -1.592076    5.420317
 C    3.888581   -0.700866    7.468440
 C   -1.462522    1.731181    1.126802
 C    4.284033   13.986819    9.676668
 C    7.450678    9.590181    4.274933
 C   -4.629167    6.127820    6.528538
 N   -2.167403   17.249405    6.733047
 H   -1.796408   16.332575    8.450475
 H   -0.663572   16.136099    7.386333
 H    4.617919   -0.614573    2.352996
 H    3.485083   -0.418098    3.417137
 N    4.988914   -1.531404    4.070424
 C    6.435617   13.171213   -1.397321
 H    7.404730   14.888090   -0.875081
 H   -4.583220    0.829910   11.678552
 C   -3.614107    2.546788   12.200791
 C    0.884801    8.485834   11.513259
 C    2.155201   10.504025   11.584022
 C    0.666309    5.213975   -0.780551
 C    1.936710    7.232166   -0.709788
 H    1.883758    1.049962   11.576999
 C    1.203708    1.727880   13.369511
 C    1.617802   13.990121   -2.566040
 H    0.937753   14.668038   -0.773529
 C    7.144059    3.321056   -3.508427
 C    6.088166    4.535115   -1.738495
 C   -3.266655   11.182886   12.541965
 C   -4.322548   12.396944   14.311897
 H    8.312175   -0.075447    5.161899
 H   -5.490664   15.793447    5.641572
 H   -2.324018    7.783554    0.239837
 H    5.145530    7.934447   10.563634
 N    6.987397    1.531405    6.733047
 N   -4.165886   14.186596    4.070424
 N   -0.999241    9.390405   -1.331311
 N    3.820752    6.327596   12.134782
 H    7.784564    8.473574   -3.048739
 H    6.651728    8.277099   -1.984598
 H    7.997400    7.484911   -1.851715
 H    9.042902   10.130252   -2.941785
 H    8.704145   11.217937   -1.865759
 H    9.914576   10.246564   -1.644288
 H   -5.882634    4.500063   12.669230
 H   -7.093064    5.471436   12.447759
 H   -6.221391    5.587749   13.745255
 H   -5.175890    8.233088   12.655186
 H   -3.830217    7.440901   12.788069
 H   -4.963053    7.244427   13.852210
 C   -1.617803   17.445881    2.566040
 H   -0.569727   15.758867    2.908294
 C   -2.500335   18.363026    4.621184
 C    5.321846   -2.645025    6.182286
 H    3.391237   -0.040867    7.895177
 C    4.439313   -1.727880    8.237431
 H   -0.937753    1.049962    0.773528
 C   -1.977720    2.589540    0.242538
 C    4.799231   13.128460   10.560933
 H    3.759264   14.668038   10.029942
 H    6.925908    8.908962    4.628207
 C    7.965876   10.448541    5.159197
 C   -5.144364    5.269460    5.644273
 H   -4.104398    6.809038    6.175264
 C   -3.039306   18.183525    7.403618
 C    5.860817   -2.465526    3.399852
 C    6.721467   13.301987   -2.751644
 C    5.679918   12.096888   -0.987437
 C   -2.858407    3.621113   11.790908
 C   -3.899956    2.416014   13.555115
 H    0.497492    7.783554   11.043307
 C    0.721937    8.559866   12.870174
 C    1.978351   10.560610   12.941370
 H    2.635117   11.177070   11.158905
 C    0.843160    5.157390   -2.137899
 H    0.186393    4.540931   -0.355433
 C    2.099574    7.158134   -2.066705
 H    2.324019    7.934447   -0.239837
 C    0.498025    2.701610   14.067307
 C    1.754440    0.700866   14.138502
 C    1.067070   15.017135   -3.335031
 C    2.323484   13.016391   -3.263836
 C    6.641527    4.237887   -4.414298
 O    7.915902    2.322492   -3.994259
 C    5.599978    5.442986   -2.650091
 H    5.892444    4.650956   -0.836188
 H   -3.070934   11.067044   11.639659
 C   -2.778467   10.275014   13.453562
 O   -5.094391   13.395508   14.797729
 C   -3.820017   11.480113   15.217769
 C    6.115494    2.465525    7.403618
 C    7.541722    0.457237    7.522457
 C   -4.720212   15.260764    3.281014
 C   -3.293983   13.252475    3.399852
 C   -1.553567    8.316236   -2.120722
 C   -0.127338   10.324526   -2.001883
 C    2.948849    5.393475   12.805353
 C    4.375078    7.401764   12.924192
 C   -1.462522   17.449181    1.126802
 C   -2.323485   18.419611    3.263836
 H   -2.980251   19.036070    5.046301
 H    5.801762   -3.318069    5.757169
 C    5.144995   -2.701610    7.539635
 C    4.284033   -1.731181    9.676668
 C   -1.718633    2.479043   -1.184816
 H   -2.518883    3.280347    0.548816
 H    5.340394   12.437654   10.254654
 C    4.540144   13.238957   11.988287
 H    8.507039   11.139347    4.852919
 C    7.706789   10.338043    6.586552
 C   -4.885278    5.379957    4.216919
 H   -5.685528    4.578653    5.950552
 H   -2.715989   19.076937    7.267495
 H   -3.054746   17.989252    8.343520
 H   -3.926419   18.105564    7.046023
 H    5.537500   -3.358936    3.535976
 H    5.876257   -2.271252    2.459950
 H    6.747930   -2.387564    3.757447
 C    6.233280   12.394114   -3.663240
 H    7.247391   14.011025   -3.044418
 C    5.177387   11.180057   -1.893308
 H    5.502845   11.984975   -0.081026
 H   -2.681334    3.733025   10.884497
 C   -2.355876    4.537944   12.696779
 H   -4.425880    1.706975   13.847889
 C   -3.411769    3.323886   14.466711
 H    0.224593    7.899867   13.296911
 C    1.272668    9.586880   13.639166
 H    2.342992   11.274522   13.412509
 H    0.478518    4.443479   -2.609038
 C    1.548842    6.131120   -2.835695
 H    2.596918    7.818133   -2.493442
 H    0.133384    3.415521   13.596168
 C    0.321176    2.645025   15.424655
 H    2.251784    0.040867   13.711765
 C    1.591576    0.626834   15.495419
 C    1.229935   15.091166   -4.691947
 H    0.569726   15.677134   -2.908294
 C    2.500336   13.072975   -4.621184
 H    2.688126   12.302479   -2.792697
 H    6.818600    4.125975   -5.320709
 C    5.885828    5.312212   -4.004415
 H    8.154417    1.837434   -3.378246
 H    5.074055    6.152026   -2.357317
 H   -2.252544    9.565975   13.160788
 C   -3.064317   10.405787   14.807885
 H   -5.332906   13.880567   14.181716
 H   -3.997089   11.592026   16.124180
 H    6.438811    3.358937    7.267495
 H    6.100054    2.271251    8.343520
 H    5.228381    2.387564    7.046023
 H    7.145556   -0.374088    7.253450
 H    7.358392    0.614574    8.450475
 H    8.491228    0.418099    7.386333
 H   -4.536881   15.103427    2.352996
 H   -5.669718   15.299902    3.417137
 H   -4.324045   16.092089    3.550020
 H   -3.617300   12.359064    3.535976
 H   -3.278543   13.446749    2.459950
 H   -2.406870   13.330437    3.757447
 H   -1.370236    8.473574   -3.048739
 H   -2.503073    8.277099   -1.984598
 H   -1.157400    7.484911   -1.851715
 H   -0.111898   10.130252   -2.941785
 H   -0.450655   11.217937   -1.865759
 H    0.759775   10.246564   -1.644288
 H    3.272167    4.500063   12.669230
 H    2.061736    5.471436   12.447759
 H    2.933409    5.587749   13.745255
 H    3.978911    8.233088   12.655186
 H    5.324583    7.440901   12.788069
 H    4.191747    7.244427   13.852210
 H   -0.937753   16.767963    0.773528
 C   -1.977720   18.307541    0.242538
 H   -2.688127   19.133522    2.792697
 H    5.509637   -3.415522    8.010774
 C    4.799231   -2.589540   10.560933
 H    3.759264   -1.049962   10.029942
 C   -2.280089    3.437684   -2.132281
 O   -0.979383    1.559854   -1.610366
 O    3.800894   14.158146   12.413836
 C    5.101600   12.280316   12.935751
 O    6.967539    9.418855    7.012101
 C    8.268246   11.296684    7.534016
 C   -5.446734    4.421316    3.269454
 O   -4.146028    6.299146    3.791370
 C    5.446734   11.296684   -3.269454
 H    6.429001   12.509956   -4.565547
 O    4.405543   10.181493   -1.407476
 O   -1.584033    5.536509   12.210947
 C   -2.625224    4.421316   14.072926
 H   -3.607490    3.208044   15.369017
 C    1.117388    9.590181   15.078403
 C    1.704123    6.127820   -4.274933
 H   -0.158741    3.318070   15.849771
 C    0.850391    1.592076   16.186625
 H    1.978885   -0.075447   15.965369
 C    1.971120   14.125924   -5.383153
 H    0.842626   15.793447   -5.161899
 H    2.980251   12.399931   -5.046301
 C    5.380451    6.329482   -4.994444
 C   -2.558940    9.388519   15.797915
 C   -1.718633   18.197044   -1.184816
 H   -2.518883   18.998346    0.548816
 H    5.340394   -3.280347   10.254654
 C    4.540144   -2.479043   11.988287
 C   -2.010742    3.321056   -3.508427
 C   -3.066635    4.535115   -1.738495
 C    5.888145   11.182886   12.541965
 C    4.832253   12.396944   14.311897
 C    7.998898   11.180057    8.910163
 C    9.054790   12.394114    7.140230
 C   -6.233280    3.323886    3.663241
 C   -5.177387    4.537944    1.893308
 C    4.885279   10.338043   -4.216919
 H    4.167028    9.696434   -2.023490
 H   -1.345518    6.021566   12.826961
 C   -2.063767    5.379957   15.020390
 H    0.592619    8.908962   15.431677
 C    1.632586   10.448541   15.962667
 C    1.188925    5.269460   -5.159198
 H    2.228892    6.809038   -4.628207
 N    0.654108    1.531405   17.536518
 N    2.167403   14.186596   -6.733047
 H    4.916715    7.029090   -4.526655
 H    4.779279    5.905253   -5.610242
 H    6.121571    6.703727   -5.476279
 H   -3.300060    9.014274   16.279751
 H   -2.095204    8.688910   15.330125
 H   -1.957768    9.812748   16.413712
 C   -2.280089   19.155685   -2.132281
 O   -0.979383   17.277855   -1.610366
 O    3.800894   -1.559855   12.413836
 C    5.101600   -3.437684   12.935751
 C   -2.513273    4.237887   -4.414298
 O   -1.238899    2.322492   -3.994259
 C   -3.554822    5.442986   -2.650091
 H   -3.262357    4.650956   -0.836188
 H    6.083867   11.067044   11.639659
 C    6.376333   10.275014   13.453562
 O    4.060410   13.395508   14.797729
 C    5.334784   11.480113   15.217769
 O    7.227054   10.181493    9.395994
 C    8.501429   12.096888    9.816033
 H    9.250512   12.509956    6.237924
 C    9.542978   13.301987    8.051826
 C   -6.721467    2.416014    2.751644
 H   -6.429001    3.208044    4.565547
 C   -5.679918    3.621113    0.987437
 O   -4.405543    5.536509    1.407476
 O    4.146029    9.418855   -3.791370
 C    5.144365   10.448541   -5.644273
 C   -2.322854    5.269460   16.447742
 O   -1.324517    6.299146   14.594841
 H    2.173749   11.139347   15.656389
 C    1.373500   10.338043   17.390022
 C    1.448011    5.379957   -6.586552
 H    0.647761    4.578653   -4.852919
 C   -0.217796    2.465525   18.207088
 C    1.208433    0.457237   18.325928
 C    1.613078   15.260764   -7.522457
 C    3.039306   13.252475   -7.403618
 C   -2.010742   19.039057   -3.508427
 C   -3.066635   20.253115   -1.738495
 C    5.888145   -4.535114   12.541965
 C    4.832253   -3.321056   14.311897
 H   -2.336200    4.125975   -5.320709
 C   -3.268973    5.312212   -4.004415
 H   -1.000383    1.837434   -3.378246
 H   -4.080746    6.152026   -2.357317
 H    6.902256    9.565975   13.160788
 C    6.090484   10.405787   14.807885
 H    3.821894   13.880567   14.181716
 H    5.157711   11.592026   16.124180
 H    6.988539    9.696434    8.779981
 H    8.324356   11.984975   10.722445
 C    9.257128   13.171213    9.406150
 H   10.068901   14.011025    7.759052
 H   -7.247391    1.706975    3.044418
 C   -6.435617    2.546788    1.397321
 H   -5.502845    3.733025    0.081026
 H   -4.167028    6.021566    2.023490
 C    4.629168    9.590181   -6.528537
 H    5.685528   11.139347   -5.950552
 H   -2.864017    4.578653   16.754023
 C   -1.807656    6.127820   17.332008
 O    0.634249    9.418855   17.815571
 C    1.934956   11.296684   18.337486
 C    0.886555    4.421316   -7.534016
 O    2.187262    6.299146   -7.012101
 H    0.105522    3.358937   18.070965
 H   -0.233236    2.271251   19.146992
 H   -1.104908    2.387564   17.849495
 H    0.812266   -0.374088   18.056921
 H    1.025103    0.614574   19.253944
 H    2.157938    0.418099   18.189804
 H    1.796408   15.103427   -8.450475
 H    0.663572   15.299902   -7.386333
 H    2.009244   16.092089   -7.253450
 H    2.715990   12.359064   -7.267494
 H    3.054746   13.446749   -8.343520
 H    3.926419   13.330437   -7.046023
 C   -2.513273   19.955887   -4.414298
 O   -1.238899   18.040493   -3.994259
 C   -3.554822   21.160986   -2.650091
 H   -3.262357   20.368958   -0.836188
 H    6.083867   -4.650956   11.639659
 C    6.376333   -5.442986   13.453562
 O    4.060410   -2.322493   14.797729
 C    5.334784   -4.237887   15.217769
 C   -3.774350    6.329482   -4.994444
 C    6.595860    9.388519   15.797915
 C    9.762506   14.188481   10.396180
 C   -6.940994    1.529519    0.407291
 C    4.784447    9.586880   -7.967775
 H    4.104398    8.908962   -6.175264
 H   -1.282887    6.809038   16.978735
 C   -1.962936    6.131120   18.771246
 C    1.665608   11.180057   19.713634
 C    2.721501   12.394114   17.943701
 C    0.100010    3.323886   -7.140230
 C    1.155903    4.537944   -8.910162
 H   -2.336200   19.843975   -5.320709
 C   -3.268973   21.030212   -4.004415
 H   -1.000383   17.555435   -3.378246
 H   -4.080746   21.870026   -2.357317
 H    6.902256   -6.152025   13.160788
 C    6.090484   -5.312213   14.807885
 H    3.821894   -1.837434   14.181716
 H    5.157711   -4.125975   16.124180
 H   -4.238085    7.029090   -4.526655
 H   -4.375522    5.905253   -5.610242
 H   -3.033229    6.703727   -5.476279
 H    5.854740    9.014274   16.279751
 H    7.059596    8.688910   15.330125
 H    7.197032    9.812748   16.413712
 H    9.021385   14.562727   10.878016
 H   10.226240   14.888090    9.928390
 H   10.363677   13.764253   11.011977
 H   -7.542166    1.953748   -0.208507
 H   -7.404730    0.829910    0.875081
 H   -6.199874    1.155273   -0.074544
 C    4.233716    8.559866   -8.736767
 C    5.490129   10.560610   -8.665571
 C   -2.668619    5.157390   19.469042
 C   -1.412205    7.158134   19.540237
 O    0.893764   10.181493   20.199465
 C    2.168139   12.096888   20.619503
 H    2.917222   12.509956   17.041393
 C    3.209689   13.301987   18.855297
 C   -0.388178    2.416014   -8.051826
 H   -0.095711    3.208044   -6.237924
 C    0.653372    3.621113   -9.816033
 O    1.927746    5.536509   -9.395994
 C   -3.774350   22.047482   -4.994444
 C    6.595860   -6.329481   15.797915
 C    4.396580    8.485834  -10.093682
 H    3.736372    7.899867   -8.310030
 C    5.666980   10.504025  -10.022920
 H    5.854771   11.274522   -8.194432
 H   -3.033260    4.443479   18.997902
 C   -2.845469    5.213975   20.826389
 H   -0.914861    7.818133   19.113499
 C   -1.575069    7.232166   20.897152
 H    0.655249    9.696434   19.583450
 H    1.991066   11.984975   21.525915
 C    2.923839   13.171213   20.209621
 H    3.735612   14.011025   18.562523
 H   -0.914101    1.706975   -7.759052
 C   -0.102328    2.546788   -9.406150
 H    0.830444    3.733025  -10.722445
 H    2.166261    6.021566   -8.779981
 H   -4.238085   22.747089   -4.526655
 H   -4.375522   21.623253   -5.610242
 H   -3.033229   22.421728   -5.476279
 H    5.854740   -6.703727   16.279751
 H    7.059596   -7.029090   15.330125
 H    7.197032   -5.905252   16.413712
 H    4.009271    7.783554  -10.563634
 C    5.137765    9.451077  -10.784888
 H    6.146896   11.177070  -10.448036
 H   -3.325386    4.540931   21.251507
 C   -2.316254    6.266924   21.588360
 H   -1.187760    7.934447   21.367104
 C    3.429216   14.188481   21.199650
 C   -0.607705    1.529519  -10.396180
 N    5.334048    9.390405  -12.134782
 N   -2.512537    6.327596   22.938253
 H    2.688095   14.562727   21.681486
 H    3.892951   14.888090   20.731861
 H    4.030387   13.764253   21.815449
 H   -1.208877    1.953748  -11.011977
 H   -1.071441    0.829910   -9.928390
 H    0.133415    1.155273  -10.878015
 C    4.779723    8.316236  -12.924192
 C    6.205951   10.324526  -12.805353
 C   -3.384440    5.393475   23.608824
 C   -1.958212    7.401764   23.727663
 H    4.963053    8.473574  -13.852209
 H    3.830217    8.277099  -12.788069
 H    5.175889    7.484911  -12.655186
 H    6.221391   10.130252  -13.745256
 H    5.882634   11.217937  -12.669230
 H    7.093064   10.246564  -12.447759
 H   -3.061123    4.500063   23.472700
 H   -4.271553    5.471436   23.251228
 H   -3.399880    5.587749   24.548727
 H   -2.354379    8.233088   23.458656
 H   -1.008707    7.440901   23.591539
 H   -2.141542    7.244427   24.655680
