80
2cell_dimer_1.xyz
     O   1.675065   2.112706   3.704190
     C   2.318453   1.093859   4.331001
     H   1.107250   1.618680   3.011176
     C   3.109975   1.382721   5.437387
     C   2.216327  -0.231879   3.870247
     O   0.739708   0.367032   2.133507
     C   3.729175   0.379272   6.131286
     H   3.182000   2.350375   5.663668
     C   1.459527  -0.526136   2.637657
     C   2.871325  -1.227828   4.607764
     H   4.278500   0.588252   6.896922
     C   3.609850  -0.955153   5.741826
     C   1.584550  -1.830951   2.010403
     H   2.816500  -2.154292   4.310853
     C   4.283875  -2.061777   6.517425
     C   0.882575  -2.177453   0.915088
     H   2.214500  -2.438548   2.371301
     H   4.195725  -2.888620   6.037851
     H   3.870000  -2.146396   7.379595
     H   5.214825  -1.854244   6.629015
     C   0.983732  -3.415810   0.179121
     H   0.268750  -1.537088   0.573452
     C   1.857600  -4.447290   0.531605
     C   0.209625  -3.625975  -0.958485
     C   1.968325  -5.597080  -0.206133
     H   2.472500  -4.328323   1.315175
     H  -0.430000  -2.932048  -1.224398
     C   0.302075  -4.777475  -1.714600
     C   1.182500  -5.803823  -1.354809
     H   2.590750  -6.285216   0.092992
     H  -0.279500  -4.869200  -2.484221
     N   1.286453  -6.955718  -2.082804
     C   0.421400  -7.203784  -3.209118
     C   2.186550  -8.013519  -1.673639
     H  -0.473001  -7.053760  -2.971321
     H   0.580500  -8.040760  -3.575771
     H   0.569750  -6.474720  -3.923386
     H   1.967250  -8.377655  -0.774935
     H   2.171500  -8.725080  -2.351374
     H   3.117500  -7.698600  -1.563156
     N   6.661453   0.375718   2.082804
     C   5.796400   0.623784   3.209117
     C   7.561550   1.433519   1.673638
     C   6.557500  -0.776176   1.354808
     H   4.902000   0.473760   2.971323
     H   5.955500   1.460760   3.575772
     H   5.944750  -0.105280   3.923385
     H   7.546500   2.145080   2.351374
     H   7.342250   1.797656   0.774935
     H   8.492499   1.118600   1.563155
     C   5.677075  -1.802525   1.714599
     C   7.343325  -0.982921   0.206133
     C   5.584625  -2.954025   0.958484
     H   5.095500  -1.710800   2.484220
     C   7.232600  -2.132710  -0.531605
     H   7.965750  -0.294785  -0.092991
     C   6.358733  -3.164190  -0.179121
     H   4.945000  -3.647952   1.224397
     H   7.847500  -2.251677  -1.315176
     C   6.257575  -4.402547  -0.915087
     H   5.643750  -5.042912  -0.573452
     C   6.959550  -4.749049  -2.010403
     C   6.834527  -6.053863  -2.637657
     H   7.589499  -4.141452  -2.371302
     O   6.114707  -6.947032  -2.133507
     C   7.591327  -6.348120  -3.870247
     H   6.482250  -8.198681  -3.011177
     C   7.693452  -7.673859  -4.331001
     C   8.246325  -5.352172  -4.607763
     O   7.050065  -8.692706  -3.704189
     C   8.484975  -7.962721  -5.437387
     H   8.191500  -4.425708  -4.310852
     C   8.984850  -5.624847  -5.741827
     H   8.557000  -8.930375  -5.663668
     C   9.104175  -6.959271  -6.131285
     C   9.658875  -4.518223  -6.517426
     H   9.653500  -7.168252  -6.896922
     H   9.245000  -4.433604  -7.379596
     H  10.589826  -4.725756  -6.629015
     H   9.570725  -3.691380  -6.037851
