80
2cell_dimer_2.xyz
     O   9.074935  11.047294  18.436811
     C   8.431547  12.066141  17.809999
     H   9.642750  11.541320  19.129824
     C   7.640025  11.777279  16.703613
     C   8.533673  13.391879  18.270754
     O  10.010293  12.792968  20.007494
     C   7.020825  12.780728  16.009716
     H   7.568000  10.809625  16.477333
     C   9.290473  13.686136  19.503344
     C   7.878675  14.387828  17.533237
     H   6.471500  12.571748  15.244079
     C   7.140150  14.115152  16.399174
     C   9.165450  14.990951  20.130598
     H   7.933500  15.314292  17.830149
     C   6.466125  15.221777  15.623575
     H   8.535501  15.598548  19.769699
     C   9.867425  15.337454  21.225914
     H   5.535175  15.014244  15.511986
     H   6.880000  15.306396  14.761405
     H   6.554275  16.048620  16.103149
     H  10.481250  14.697088  21.567549
     C   9.766268  16.575809  21.961880
     C  10.540375  16.785975  23.099485
     C   8.892400  17.607290  21.609396
     C  10.447925  17.937475  23.855600
     H  11.180000  16.092049  23.365398
     H   8.277500  17.488323  20.825825
     C   8.781675  18.757080  22.347134
     C   9.567500  18.963823  23.495808
     H  11.029500  18.029200  24.625221
     H   8.159250  19.445215  22.048010
     N   9.463547  20.115719  24.223804
     C   8.563450  21.173519  23.814638
     C  10.328600  20.363785  25.350117
     H   7.632501  20.858601  23.704155
     H   8.578500  21.885078  24.492374
     H   8.782750  21.537655  22.915936
     H  10.180250  19.634720  26.064386
     H  10.169499  21.200760  25.716772
     H  11.223000  20.213760  25.112324
     N   4.088547  12.784282  20.058197
     C   4.953600  12.536216  18.931883
     C   3.188450  11.726481  20.467361
     C   4.192500  13.936176  20.786192
     H   5.848001  12.686239  19.169680
     H   4.794500  11.699240  18.565229
     H   4.805250  13.265280  18.217615
     H   3.203500  11.014920  19.789627
     H   3.407750  11.362344  21.366066
     H   2.257500  12.041399  20.577845
     C   3.406675  14.142920  21.934868
     C   5.072925  14.962525  20.426401
     C   3.517400  15.292709  22.672606
     H   2.784250  13.454784  22.233994
     H   5.654500  14.870800  19.656780
     C   5.165375  16.114025  21.182516
     H   2.902500  15.411676  23.456177
     C   4.391267  16.324190  22.320122
     H   5.805000  16.807951  20.916603
     C   4.492425  17.562546  23.056087
     C   3.790450  17.909050  24.151403
     H   5.106250  18.202911  22.714453
     H   3.160500  17.301453  24.512302
     C   3.915473  19.213863  24.778658
     C   3.158673  19.508120  26.011248
     O   4.635293  20.107033  24.274508
     C   2.503675  18.512173  26.748764
     C   3.056548  20.833858  26.472002
     H   4.267750  21.358681  25.152178
     C   1.765150  18.784847  27.882828
     H   2.558500  17.585709  26.451855
     O   3.699935  21.852707  25.845190
     C   2.265025  21.122721  27.578388
     C   1.091125  17.678223  28.658426
     C   1.645825  20.119270  28.272285
     H   2.193000  22.090374  27.804668
     H   1.179275  16.851379  28.178852
     H   1.505000  17.593603  29.520596
     H   0.160175  17.885756  28.770016
     H   1.096500  20.328253  29.037922
