320
2/2hc_2_221-opt.xyz
     O   1.699561   2.112082   3.625623
     O   0.715061   0.388406   2.136689
     C   1.467449  12.627638   2.622715
     C   0.976718   9.739007   0.178919
     C   2.245913  12.931643   3.839616
     C   1.585681  11.338355   1.999082
     C   2.338798   1.120413   4.286060
     C   1.961142   7.531299  21.968593
     N   1.278140   6.183478  20.075181
     C   1.170762   7.325615  20.799650
     C   0.878808  10.979678   0.882540
     C   2.912581  11.941451   4.588630
     C   1.861141   8.695618   0.551623
     C   3.752856   0.421359   6.122356
     C   3.117416   1.429050   5.412007
     C   3.649563  12.232781   5.728790
     C   0.184268   9.519792  21.167190
     C   0.269103   8.361145  20.423001
     C   0.460908   5.985677  18.887964
     C   2.211841   5.141871  20.484815
     C   4.327222  11.136747   6.505795
     H   3.902137  11.039112   7.517750
     H   5.397803  11.347561   6.636276
     H   4.229940  10.173672   5.987280
     H   2.857368  10.901162   4.272261
     H  10.238882  10.301553  20.863071
     H   0.182215  11.715733   0.466766
     H   2.657520   6.764157   0.157913
     H   3.203047   2.471438   5.719167
     H   4.342342   0.675414   7.006038
     H   2.487573   8.806603   1.436169
     H   2.289600  10.631435   2.433749
     H  10.139759   6.064422  19.124218
     H  10.390136   8.246280  19.542546
     H   2.180453   4.325297  19.756879
     H   1.948639   4.739621  21.474999
     H   0.653370   4.989643  18.479999
     H   3.242108   5.528470  20.531696
     H   1.138895   1.590739   2.916420
     H   0.696525   6.728074  18.109412
     O   3.675449  11.047918  14.696123
     O   9.050439   8.692082   7.444877
     O   7.074561   4.467918  18.515377
     O   9.050449  11.047918  18.515377
     O   7.074561   2.112082   7.444877
     O   1.699561   4.467918  14.696123
     O   3.675449   8.692082   3.625623
     O   4.659939  12.771594  13.207189
     O  10.034939   6.968406   8.933811
     O   6.090061   6.191594  20.004311
     O  10.034939  12.771594  20.004311
     O   6.090061   0.388406   8.933811
     O   0.715061   6.191594  13.207189
     O   4.659939   6.968406   2.136689
     C   3.907551   0.532362  13.693215
     C   9.282551   6.047638   8.447785
     C   6.842449   7.112362  19.518285
     C   9.282551   0.532362  19.518285
     C   6.842449  12.627638   8.447785
     C   1.467449   7.112362  13.693215
     C   3.907551   6.047638   2.622715
     C   4.398282   3.420993  11.249419
     C   9.773282   3.159007  10.891581
     C   6.351718  10.000993  21.962081
     C   9.773282   3.420993  21.962081
     C   6.351718   9.739007  10.891581
     C   0.976718  10.000993  11.249419
     C   4.398282   3.159007   0.178919
     C   3.129087   0.228357  14.910116
     C   8.504088   6.351643   7.230884
     C   7.620913   6.808357  18.301384
     C   8.504088   0.228357  18.301384
     C   7.620913  12.931643   7.230884
     C   2.245913   6.808357  14.910116
     C   3.129087   6.351643   3.839616
     C   3.789319   1.821645  13.069582
     C   9.164319   4.758355   9.071418
     C   6.960681   8.401645  20.141918
     C   9.164319   1.821645  20.141918
     C   6.960681  11.338355   9.071418
     C   1.585681   8.401645  13.069582
     C   3.789319   4.758355   1.999082
     C   3.036202  12.039587  15.356560
     C   8.411202   7.700413   6.784440
     C   7.713798   5.459587  17.854940
     C   8.411202  12.039587  17.854940
     C   7.713798   1.120413   6.784440
     C   2.338798   5.459587  15.356560
     C   3.036202   7.700413   4.286060
     C   3.413868   5.628701  10.898093
     C   8.788858   0.951299  11.242907
     C   7.336142  12.208701   0.172407
     C   8.788858   5.628701   0.172407
     C   7.336142   7.531299  11.242907
     C   1.961142  12.208701  10.898093
     C   3.413868   0.951299  21.968593
     N   4.096860   6.976522   9.004681
     N   9.471860  12.763478  13.136319
     N   6.653140   0.396522   2.065819
     N   9.471860   6.976522   2.065819
     N   6.653140   6.183478  13.136319
     N   1.278140   0.396522   9.004681
     N   4.096860  12.763478  20.075181
     C   4.204238   5.834385   9.729150
     C   9.579238   0.745615  12.411850
     C   6.545762  12.414385   1.341350
     C   9.579238   5.834385   1.341350
     C   6.545762   7.325615  12.411850
     C   1.170762  12.414385   9.729150
     C   4.204238   0.745615  20.799650
     C   4.496202   2.180322  11.953040
     C   9.871192   4.399678  10.187960
     C   6.253808   8.760322  21.258460
     C   9.871202   2.180322  21.258460
     C   6.253808  10.979678  10.187960
     C   0.878808   8.760322  11.953040
     C   4.496192   4.399678   0.882540
     C   2.462429   1.218549  15.659130
     C   7.837419   5.361451   6.481870
     C   8.287581   7.798549  17.552370
     C   7.837419   1.218549  17.552370
     C   8.287581  11.941451   6.481870
     C   2.912581   7.798549  15.659130
     C   2.462429   5.361451   4.588630
     C   3.513859   4.464382  11.622123
     C   8.888859   2.115618  10.518877
     C   7.236141  11.044382  21.589377
     C   8.888859   4.464382  21.589377
     C   7.236141   8.695618  10.518877
     C   1.861141  11.044382  11.622123
     C   3.513859   2.115618   0.551623
     C   1.622154  12.738641  17.192856
     C   6.997154   7.001359   4.948144
     C   9.127856   6.158641  16.018644
     C   6.997154  12.738641  16.018644
     C   9.127846   0.421359   4.948144
     C   3.752856   6.158641  17.192856
     C   1.622154   7.001359   6.122356
     C   2.257594  11.730950  16.482507
     C   7.632594   8.009050   5.658493
     C   8.492416   5.150950  16.728993
     C   7.632594  11.730950  16.728993
     C   8.492416   1.429050   5.658493
     C   3.117416   5.150950  16.482507
     C   2.257594   8.009050   5.412007
     C   1.725437   0.927219  16.799290
     C   7.100437   5.652781   5.341710
     C   9.024563   7.507219  16.412210
     C   7.100437   0.927219  16.412210
     C   9.024563  12.232781   5.341710
     C   3.649563   7.507219  16.799290
     C   1.725437   5.652781   5.728790
     H   5.985241   7.095578   8.053718
     H   0.610241  12.644422  14.087282
     H   4.764759   0.515578   3.016782
     H   0.610241   7.095578   3.016782
     H   4.764759   6.064422  14.087282
     H  10.139759   0.515578   8.053718
     H   5.985241  12.644422  19.124218
     C   5.190742   3.640208  10.096690
     C  10.565742   2.939792  12.044310
     C   5.559268  10.220208   0.973810
     C  10.565742   3.640208   0.973810
     C   5.559268   9.519792  12.044310
     C   0.184268  10.220208  10.096690
     C   5.190742   2.939792  21.167190
     C   5.105907   4.798855   9.352501
     C  10.480897   1.781145  12.788499
     C   5.644103  11.378855   1.717999
     C  10.480897   4.798855   1.717999
     C   5.644103   8.361145  12.788499
     C   0.269103  11.378855   9.352501
     C   5.105907   1.781145  20.423001
     C   4.914092   7.174323   7.817464
     C  10.289092  12.565677  14.323536
     C   5.835908   0.594323   3.253036
     C  10.289092   7.174323   3.253036
     C   5.835908   5.985677  14.323536
     C   0.460908   0.594323   7.817464
     C   4.914092  12.565677  18.887964
     C   3.163159   8.018129   9.414315
     C   8.538159  11.721871  12.726685
     C   7.586841   1.438129   1.656185
     C   8.538159   8.018129   1.656185
     C   7.586841   5.141871  12.726685
     C   2.211841   1.438129   9.414315
     C   3.163159  11.721871  20.484815
     C   1.047788   2.023253  17.576295
     C   6.422788   4.556747   4.564705
     C   9.702222   8.603253  15.635205
     C   6.422788   2.023253  15.635205
     C   9.702222  11.136747   4.564705
     C   4.327222   8.603253  17.576295
     C   1.047788   4.556747   6.505795
     H   1.472863   2.120888  18.588250
     H   6.847863   4.459112   3.552750
     H   9.277137   8.700888  14.623250
     H   6.847863   2.120888  14.623250
     H   9.277137  11.039112   3.552750
     H   3.902137   8.700888  18.588250
     H   1.472863   4.459112   7.517750
     H  -0.022793   1.812439  17.706776
     H   5.352207   4.767561   4.434224
     H  10.772803   8.392439  15.504724
     H   5.352207   1.812439  15.504724
     H  10.772793  11.347561   4.434224
     H   5.397803   8.392439  17.706776
     H  -0.022793   4.767561   6.636276
     H   1.145070   2.986328  17.057780
     H   6.520070   3.593672   5.083220
     H   9.604940   9.566328  16.153720
     H   6.520070   2.986328  16.153720
     H   9.604930  10.173672   5.083220
     H   4.229940   9.566328  17.057780
     H   1.145070   3.593672   5.987280
     H   2.517632   2.258838  15.342761
     H   7.892632   4.321162   6.798239
     H   8.232368   8.838838  17.868739
     H   7.892632   2.258838  17.868739
     H   8.232368  10.901162   6.798239
     H   2.857368   8.838838  15.342761
     H   2.517632   4.321162   4.272261
     H   5.886118   2.858447   9.792571
     H   0.511118   3.721553  12.348429
     H   4.863882   9.438447   1.277929
     H   0.511118   2.858447   1.277929
     H   4.863882  10.301553  12.348429
     H  10.238882   9.438447   9.792571
     H   5.886118   3.721553  20.863071
     H   5.192785   1.444267  11.537266
     H  10.567785   5.135733  10.603734
     H   5.557215   8.024267  21.674234
     H  10.567785   1.444267  21.674234
     H   5.557215  11.715733  10.603734
     H   0.182215   8.024267  11.537266
     H   5.192785   5.135733   0.466766
     H   2.717480   6.395843  11.228413
     H   8.092480   0.184157  10.912587
     H   8.032520  12.975843  21.983087
     H   8.092480   6.395843  21.983087
     H   8.032520   6.764157  10.912587
     H   2.657520  12.975843  11.228413
     H   2.717480   0.184157   0.157913
     H   2.171953  10.688562  16.789667
     H   7.546953   9.051438   5.351333
     H   8.578047   4.108562  16.421833
     H   7.546953  10.688562  16.421833
     H   8.578047   2.471438   5.351333
     H   3.203047   4.108562  16.789667
     H   2.171953   9.051438   5.719167
     H   1.032658  12.484586  18.076538
     H   6.407658   7.255414   4.064462
     H   9.717342   5.904586  15.134962
     H   6.407658  12.484586  15.134962
     H   9.717342   0.675414   4.064462
     H   4.342342   5.904586  18.076538
     H   1.032658   7.255414   7.006038
     H   2.887427   4.353397  12.506669
     H   8.262427   2.226603   9.634331
     H   7.862573  10.933397  20.704831
     H   8.262427   4.353397  20.704831
     H   7.862573   8.806603   9.634331
     H   2.487573  10.933397  12.506669
     H   2.887427   2.226603   1.436169
     H   3.085400   2.528565  13.504249
     H   8.460400   4.051435   8.636751
     H   7.664600   9.108565  19.707251
     H   8.460400   2.528565  19.707251
     H   7.664600  10.631435   8.636751
     H   2.289600   9.108565  13.504249
     H   3.085400   4.051435   2.433749
     H   5.734864   4.913720   8.472046
     H   0.359864   1.666280  13.668954
     H   5.015136  11.493720   2.598454
     H   0.359864   4.913720   2.598454
     H   5.015136   8.246280  13.668954
     H  10.390136  11.493720   8.472046
     H   5.734864   1.666280  19.542546
     H   3.194547   8.834703   8.686379
     H   8.569547  10.905297  13.454621
     H   7.555453   2.254703   2.384121
     H   8.569547   8.834703   2.384121
     H   7.555453   4.325297  13.454621
     H   2.180453   2.254703   8.686379
     H   3.194547  10.905297  19.756879
     H   3.426361   8.420379  10.404499
     H   8.801361  11.319621  11.736501
     H   7.323639   1.840379   0.666001
     H   8.801361   8.420379   0.666001
     H   7.323639   4.739621  11.736501
     H   1.948639   1.840379  10.404499
     H   3.426361  11.319621  21.474999
     H   4.721630   8.170357   7.409499
     H  10.096630  11.569643  14.731501
     H   6.028370   1.590357   3.661001
     H  10.096630   8.170357   3.661001
     H   6.028370   4.989643  14.731501
     H   0.653370   1.590357   7.409499
     H   4.721630  11.569643  18.479999
     H   2.132892   7.631530   9.461196
     H   7.507892  12.108470  12.679804
     H   8.617108   1.051530   1.609304
     H   7.507892   7.631530   1.609304
     H   8.617108   5.528470  12.679804
     H   3.242108   1.051530   9.461196
     H   2.132892  12.108470  20.531696
     H   4.236105  11.569261  13.986920
     H   9.611105   8.170739   8.154080
     H   6.513895   4.989261  19.224580
     H   9.611105  11.569261  19.224580
     H   6.513895   1.590739   8.154080
     H   1.138895   4.989261  13.986920
     H   4.236105   8.170739   2.916420
     H   4.678475   6.431926   7.038912
     H  10.053475   0.148074  15.102088
     H   6.071525  13.011926   4.031588
     H  10.053475   6.431926   4.031588
     H   6.071525   6.728074  15.102088
     H   0.696525  13.011926   7.038912
     H   4.678475   0.148074  18.109412
