80
2hc_2_424-mega_dimer_0.xyz
     C   2.553201  -2.658779  -4.605183
     C   2.003740  -1.591982  -5.375045
     C   2.364491  -2.727633  -3.244044
     H   3.135661  -3.435715  -5.094676
     C   1.247109  -0.607923  -4.680003
     N   2.197245  -1.524853  -6.717190
     C   1.628214  -1.742526  -2.544853
     H   2.810172  -3.558198  -2.697065
     C   1.071163  -0.694102  -3.315116
     H   0.800426   0.223073  -5.220494
     C   3.041507  -2.501856  -7.387689
     C   1.618481  -0.432525  -7.483522
     C   1.453269  -1.740841  -1.127854
     H   0.496034   0.074390  -2.797705
     H   2.638680  -3.520413  -7.274076
     H   3.087893  -2.266027  -8.455047
     H   4.067959  -2.481285  -6.985003
     H   1.809186  -0.598363  -8.548640
     H   0.529036  -0.389905  -7.334041
     H   2.054389   0.539030  -7.199118
     C   1.995711  -2.614472  -0.226791
     H   0.824780  -0.942808  -0.722327
     H   2.643729  -3.416825  -0.571906
     C   1.754536  -2.484814   1.187257
     C   2.331984  -3.444253   2.138501
     O   1.021369  -1.531306   1.639506
     C   3.125072  -4.542615   1.749447
     C   2.061708  -3.290261   3.532347
     H   1.047936  -1.760816   3.104999
     C   3.609347  -5.451136   2.673973
     H   3.364409  -4.705792   0.700013
     O   1.306270  -2.266076   3.979362
     C   2.556416  -4.216754   4.455230
     C   3.315939  -5.308821   4.043903
     H   4.225537  -6.285629   2.340322
     H   2.330283  -4.059447   5.510250
     C   3.797503  -6.319273   5.042906
     H   4.283994  -7.172302   4.553201
     H   4.514960  -5.875751   5.751278
     H   2.955985  -6.707014   5.637774
     C  -0.125143  -5.357144  -1.985949
     H  -0.527970  -4.338587  -1.872346
     H  -0.078757  -5.592973  -3.053307
     H   0.901309  -5.377715  -1.583273
     N  -0.969395  -6.334147  -1.315450
     C  -1.548169  -7.426475  -2.081782
     C  -1.162899  -6.267018   0.026685
     H  -1.112251  -8.398030  -1.797378
     H  -1.357464  -7.260637  -3.146910
     H  -2.637604  -7.469095  -1.932311
     C  -0.613448  -5.200221   0.796547
     C  -1.919540  -7.251077   0.721737
     C  -0.802158  -5.131367   2.157696
     H  -0.030978  -4.423285   0.307054
     H  -2.366223  -8.082073   0.181246
     C  -2.095476  -7.164898   2.086614
     C  -1.538425  -6.116474   2.856877
     H  -0.356477  -4.300802   2.704675
     H  -2.670615  -7.933390   2.604025
     C  -1.713370  -6.118159   4.273876
     C  -1.170938  -5.244528   5.174949
     H  -2.341859  -6.916192   4.679413
     C  -1.412104  -5.374186   6.588987
     H  -0.522910  -4.442175   4.829834
     C  -0.834666  -4.414747   7.540241
     O  -2.145271  -6.327694   7.041236
     C  -0.041568  -3.316385   7.151187
     C  -1.104932  -4.568739   8.934077
     H  -2.118704  -6.098184   8.506729
     C   0.442707  -2.407864   8.075713
     H   0.197759  -3.153208   6.101743
     O  -1.860380  -5.592924   9.381092
     C  -0.610224  -3.642246   9.856960
     C   0.149299  -2.550179   9.445643
     H   1.058887  -1.573371   7.742052
     H  -0.836367  -3.799543  10.911980
     C   0.630853  -1.539727  10.444646
     H   1.117354  -0.686698   9.954941
     H   1.348321  -1.983249  11.153018
     H  -0.210664  -1.151986  11.039504
80
2hc_2_424-mega_dimer_0.xyz
     C   2.553201  -2.658779  -4.605183
     C   2.003740  -1.591982  -5.375045
     C   2.364491  -2.727633  -3.244044
     H   3.135661  -3.435715  -5.094676
     C   1.247109  -0.607923  -4.680003
     N   2.197245  -1.524853  -6.717190
     C   1.628214  -1.742526  -2.544853
     H   2.810172  -3.558198  -2.697065
     C   1.071163  -0.694102  -3.315116
     H   0.800426   0.223073  -5.220494
     C   3.041507  -2.501856  -7.387689
     C   1.618481  -0.432525  -7.483522
     C   1.453269  -1.740841  -1.127854
     H   0.496034   0.074390  -2.797705
     H   2.638680  -3.520413  -7.274076
     H   3.087893  -2.266027  -8.455047
     H   4.067959  -2.481285  -6.985003
     H   1.809186  -0.598363  -8.548640
     H   0.529036  -0.389905  -7.334041
     H   2.054389   0.539030  -7.199118
     C   1.995711  -2.614472  -0.226791
     H   0.824780  -0.942808  -0.722327
     H   2.643729  -3.416825  -0.571906
     C   1.754536  -2.484814   1.187257
     C   2.331984  -3.444253   2.138501
     O   1.021369  -1.531306   1.639506
     C   3.125072  -4.542615   1.749447
     C   2.061708  -3.290261   3.532347
     H   1.047936  -1.760816   3.104999
     C   3.609347  -5.451136   2.673973
     H   3.364409  -4.705792   0.700013
     O   1.306270  -2.266076   3.979362
     C   2.556416  -4.216754   4.455230
     C   3.315939  -5.308821   4.043903
     H   4.225537  -6.285629   2.340322
     H   2.330283  -4.059447   5.510250
     C   3.797503  -6.319273   5.042906
     H   4.283994  -7.172302   4.553201
     H   4.514960  -5.875751   5.751278
     H   2.955985  -6.707014   5.637774
     C  -0.125143  -5.357144  -1.985949
     H  -0.527970  -4.338587  -1.872346
     H  -0.078757  -5.592973  -3.053307
     H   0.901309  -5.377715  -1.583273
     N  -0.969395  -6.334147  -1.315450
     C  -1.548169  -7.426475  -2.081782
     C  -1.162899  -6.267018   0.026685
     H  -1.112251  -8.398030  -1.797378
     H  -1.357464  -7.260637  -3.146910
     H  -2.637604  -7.469095  -1.932311
     C  -0.613448  -5.200221   0.796547
     C  -1.919540  -7.251077   0.721737
     C  -0.802158  -5.131367   2.157696
     H  -0.030978  -4.423285   0.307054
     H  -2.366223  -8.082073   0.181246
     C  -2.095476  -7.164898   2.086614
     C  -1.538425  -6.116474   2.856877
     H  -0.356477  -4.300802   2.704675
     H  -2.670615  -7.933390   2.604025
     C  -1.713370  -6.118159   4.273876
     C  -1.170938  -5.244528   5.174949
     H  -2.341859  -6.916192   4.679413
     C  -1.412104  -5.374186   6.588987
     H  -0.522910  -4.442175   4.829834
     C  -0.834666  -4.414747   7.540241
     O  -2.145271  -6.327694   7.041236
     C  -0.041568  -3.316385   7.151187
     C  -1.104932  -4.568739   8.934077
     H  -2.118704  -6.098184   8.506729
     C   0.442707  -2.407864   8.075713
     H   0.197759  -3.153208   6.101743
     O  -1.860380  -5.592924   9.381092
     C  -0.610224  -3.642246   9.856960
     C   0.149299  -2.550179   9.445643
     H   1.058887  -1.573371   7.742052
     H  -0.836367  -3.799543  10.911980
     C   0.630853  -1.539727  10.444646
     H   1.117354  -0.686698   9.954941
     H   1.348321  -1.983249  11.153018
     H  -0.210664  -1.151986  11.039504
