54
1_uc_dimer_1.xyz
     C   0.503406   2.424439   3.544461
     C  -0.808675   2.070967   4.158769
     C   1.372636   3.295495   4.226761
     C   0.932369   1.913378   2.312501
     O  -1.051562   2.503024   5.324355
     C  -1.755571   1.294170   3.443876
     O   1.028377   3.848953   5.406054
     C   2.620504   3.611727   3.689188
     H   0.375038   1.339196   1.839036
     C   2.163525   2.243600   1.787772
     H  -1.578762   1.028856   2.569686
     C  -2.932240   0.936385   4.047283
     H   0.304650   3.548396   5.647697
     H   3.193811   4.179596   4.151861
     C   3.004614   3.087515   2.480540
     H   2.426597   1.896756   0.965926
     N  -3.938472   0.261738   3.526114
     H  -3.034212   1.201384   4.933236
     H   3.837378   3.303280   2.127195
     C  -3.927794  -0.187151   2.151694
     C  -5.120062  -0.061121   4.326484
     H  -4.825222  -0.383980   1.872493
     H  -3.389341  -0.978360   2.077549
     H  -3.562258   0.502856   1.592968
     H  -5.895947   0.340848   3.928457
     H  -5.233952  -1.014129   4.359076
     H  -5.005970   0.278780   5.217078
     C   0.052904   0.187151   8.640771
     H   0.950331   0.383980   8.919972
     H  -0.485550   0.978360   8.714915
     N   0.063581  -0.261738   7.266351
     H  -0.312633  -0.502856   9.199497
     C   1.245171   0.061121   6.465982
     C  -0.942651  -0.936385   6.745183
     H   1.359061   1.014128   6.433388
     H   1.131079  -0.278780   5.575387
     H   2.021055  -0.340848   6.864008
     H  -0.840679  -1.201384   5.859229
     C  -2.119319  -1.294170   7.348589
     C  -3.066216  -2.070968   6.633697
     H  -2.296129  -1.028856   8.222779
     O  -2.823329  -2.503024   5.468110
     C  -4.378297  -2.424439   7.248003
     C  -5.247527  -3.295495   6.565704
     C  -4.807260  -1.913378   8.479963
     O  -4.903268  -3.848953   5.386412
     C  -6.495395  -3.611727   7.103277
     C  -6.038416  -2.243601   9.004693
     H  -4.249928  -1.339196   8.953429
     H  -4.179542  -3.548396   5.144768
     H  -7.068703  -4.179596   6.640604
     C  -6.879505  -3.087515   8.311925
     H  -6.301488  -1.896756   9.826539
     H  -7.712269  -3.303280   8.665271
