54
1_uc_dimer_3.xyz
     C   0.503406   2.424439   3.544461
     C  -0.808675   2.070967   4.158769
     C   1.372636   3.295495   4.226761
     C   0.932369   1.913378   2.312501
     O  -1.051562   2.503024   5.324355
     C  -1.755571   1.294170   3.443876
     O   1.028377   3.848953   5.406054
     C   2.620504   3.611727   3.689188
     H   0.375038   1.339196   1.839036
     C   2.163525   2.243600   1.787772
     H  -1.578762   1.028856   2.569686
     C  -2.932240   0.936385   4.047283
     H   0.304650   3.548396   5.647697
     H   3.193811   4.179596   4.151861
     C   3.004614   3.087515   2.480540
     H   2.426597   1.896756   0.965926
     N  -3.938472   0.261738   3.526114
     H  -3.034212   1.201384   4.933236
     H   3.837378   3.303280   2.127195
     C  -3.927794  -0.187151   2.151694
     C  -5.120062  -0.061121   4.326484
     H  -4.825222  -0.383980   1.872493
     H  -3.389341  -0.978360   2.077549
     H  -3.562258   0.502856   1.592968
     H  -5.895947   0.340848   3.928457
     H  -5.233952  -1.014129   4.359076
     H  -5.005970   0.278780   5.217078
     H  -0.523399   5.600848   1.467775
     C  -1.299283   5.198879   1.069749
     H  -1.413375   5.538780   0.179155
     H  -1.185394   4.245872   1.037156
     N  -2.480874   5.521738   1.870118
     C  -3.487106   6.196385   1.348950
     C  -2.491551   5.072850   3.244539
     H  -3.385133   6.461384   0.462997
     C  -4.663774   6.554171   1.952357
     H  -1.594124   4.876020   3.523740
     H  -3.030005   4.281640   3.318683
     H  -2.857088   5.762856   3.803265
     C  -5.610671   7.330968   1.237464
     H  -4.840584   6.288857   2.826547
     O  -5.367784   7.763024   0.071878
     C  -6.922752   7.684439   1.851771
     C  -7.791982   8.555495   1.169472
     C  -7.351715   7.173378   3.083731
     O  -7.447722   9.108953  -0.009821
     C  -9.039850   8.871727   1.707044
     C  -8.582870   7.503601   3.608461
     H  -6.794384   6.599196   3.557197
     H  -6.723996   8.808396  -0.251464
     H  -9.613156   9.439596   1.244371
     C  -9.423961   8.347515   2.915693
     H  -8.845942   7.156756   4.430307
     H -10.256723   8.563280   3.269038
