54
1_uc_dimer_4.xyz
     C   2.041049   7.684439   1.851771
     C   3.353130   7.330968   1.237464
     C   1.171819   8.555495   1.169472
     C   1.612086   7.173378   3.083731
     O   3.596017   7.763024   0.071878
     C   4.300026   6.554171   1.952357
     C  -0.076050   8.871727   1.707044
     O   1.516078   9.108953  -0.009821
     H   2.169417   6.599196   3.557197
     C   0.380930   7.503601   3.608461
     H   4.123216   6.288857   2.826547
     C   5.476694   6.196385   1.348950
     C  -0.460160   8.347515   2.915693
     H  -0.649356   9.439596   1.244371
     H   2.239804   8.808396  -0.251464
     H   0.117858   7.156756   4.430307
     N   6.482926   5.521738   1.870118
     H   5.578667   6.461384   0.462997
     H  -1.292923   8.563280   3.269038
     C   6.472250   5.072850   3.244539
     C   7.664517   5.198879   1.069749
     H   6.106712   5.762856   3.803265
     H   7.369677   4.876020   3.523740
     H   5.933796   4.281640   3.318683
     H   7.550425   5.538780   0.179155
     H   7.778407   4.245872   1.037156
     H   8.440401   5.600848   1.467775
     C   3.047861   2.835561   8.940695
     C   1.735780   3.189033   9.555001
     C   3.917091   1.964505   9.622993
     C   3.476824   3.346622   7.708734
     O   1.492893   2.756977  10.720588
     C   0.788883   3.965830   8.840109
     C   5.164958   1.648274   9.085422
     O   3.572831   1.411048  10.802287
     H   2.919492   3.920804   7.235269
     C   4.707980   3.016400   7.184005
     H   0.965693   4.231144   7.965919
     C  -0.387785   4.323615   9.443515
     C   5.549069   2.172485   7.876772
     H   5.738266   1.080404   9.548094
     H   2.849106   1.711604  11.043929
     H   4.971051   3.363244   6.362158
     N  -1.394017   4.998263   8.922347
     H  -0.489758   4.058616  10.329469
     H   6.381832   1.956720   7.523427
     C  -1.383340   5.447151   7.547927
     C  -2.575608   5.321122   9.722715
     H  -1.017803   4.757144   6.989201
     H  -2.280767   5.643980   7.268725
     H  -0.844887   6.238360   7.473782
     H  -2.461516   4.981220  10.613310
     H  -2.689497   6.274128   9.755310
     H  -3.351491   4.919152   9.324690
