82
2hc_5_rel-mega_dimer_3.xyz
     C  -5.706418  -6.012055 -16.455422
     H  -5.870111  -6.818024 -15.721653
     H  -6.661943  -5.719940 -16.907289
     H  -5.247600  -5.139557 -15.960401
     O  -4.879954  -6.464712 -17.530061
     C  -3.619904  -6.915799 -17.210325
     C  -3.090146  -6.965685 -15.929966
     C  -2.847094  -7.351359 -18.301788
     H  -3.687335  -6.632421 -15.087013
     C  -1.774234  -7.439275 -15.705824
     C  -1.567932  -7.833938 -18.109629
     H  -3.271652  -7.294310 -19.302973
     C  -1.007261  -7.877037 -16.824975
     C  -1.151752  -7.476864 -14.375708
     H  -0.971334  -8.169870 -18.957781
     O   0.255306  -8.340820 -16.673941
     C  -1.865848  -7.087653 -13.186955
     O   0.071433  -7.865727 -14.285922
     H   0.426305  -8.201161 -15.647053
     C  -1.263696  -7.140447 -11.962534
     H  -2.889634  -6.734134 -13.279178
     C  -1.771238  -6.743836 -10.688372
     H  -0.238584  -7.525420 -11.951774
     C  -3.046875  -6.166860 -10.481261
     C  -0.941370  -6.903038  -9.555013
     C  -3.457163  -5.763330  -9.232779
     H  -3.720492  -6.028400 -11.327139
     C  -1.334086  -6.505437  -8.295168
     H   0.044942  -7.347420  -9.692045
     H  -4.444735  -5.322529  -9.120091
     C  -2.607293  -5.907632  -8.098989
     H  -0.656250  -6.648531  -7.456539
     N  -3.003151  -5.478954  -6.868880
     C  -4.345337  -4.953627  -6.664801
     C  -2.151420  -5.705067  -5.712160
     H  -4.533677  -4.092307  -7.322319
     H  -4.447846  -4.629229  -5.624133
     H  -5.111906  -5.718541  -6.869759
     H  -2.628662  -5.289666  -4.818500
     H  -1.983211  -6.782630  -5.545970
     H  -1.169985  -5.219682  -5.841528
     C   0.134528  -8.781231  -4.030590
     H  -0.746474  -8.203850  -4.350885
     H  -0.154177  -9.827588  -3.882571
     H   0.916381  -8.716901  -4.802010
     O   0.603463  -8.320878  -2.756122
     C   0.953098  -7.000168  -2.644728
     C   1.178200  -6.555826  -1.326419
     C   1.081761  -6.113987  -3.704896
     C   1.439719  -5.226981  -1.066972
     H   1.102381  -7.275196  -0.510496
     C   1.374977  -4.748042  -3.468734
     H   0.941796  -6.471218  -4.722677
     C   1.499262  -4.297696  -2.121133
     H   1.566983  -4.870263  -0.045477
     C   1.582019  -3.771253  -4.547421
     O   1.679880  -2.998855  -1.827526
     C   1.710145  -4.196893  -5.927102
     O   1.698894  -2.534661  -4.235690
     H   1.700022  -2.539860  -2.761271
     C   1.959986  -3.299802  -6.927274
     H   1.662313  -5.262623  -6.148364
     C   2.182633  -3.581022  -8.316179
     H   1.994538  -2.243570  -6.637048
     C   2.377663  -2.518976  -9.226556
     C   2.204645  -4.889780  -8.854553
     C   2.553685  -2.733769 -10.579733
     H   2.361882  -1.496258  -8.843759
     C   2.381592  -5.126742 -10.199771
     H   2.080942  -5.745734  -8.192229
     C   2.538244  -4.049846 -11.116252
     H   2.664162  -1.879716 -11.243998
     H   2.391798  -6.157286 -10.547720
     N   2.651239  -4.280057 -12.454837
     C   2.441909  -5.613439 -13.001271
     C   2.909007  -3.182022 -13.367027
     H   3.292240  -6.284692 -12.789381
     H   2.298646  -5.535877 -14.082121
     H   1.531079  -6.070182 -12.588878
     H   2.038216  -2.510119 -13.445548
     H   3.112987  -3.583547 -14.365042
     H   3.783495  -2.597926 -13.035802
