328
VESTA_phase_1
C         11.22181        4.01717       18.56081
H         10.75683        4.26471       19.32821
C          3.09313        3.59555       18.66333
H          3.50389        3.55524       19.49632
C          3.79610        3.23409       17.52798
C          3.15834        3.25871       16.31449
H          3.62603        2.99103       15.55633
C         11.26857        3.67384       16.17219
C         10.59212        4.07358       17.32790
C          5.83855        2.99634       18.73744
H          5.72134        3.88590       19.07722
H          6.77029        2.83926       18.56815
H          5.52024        2.36191       19.38266
C         10.60123        3.73570       14.84718
C         11.27176        3.26399       13.65500
H          2.65346        2.84645       13.72603
C         10.71914        3.42196       12.46069
H          9.90577        3.87351       12.45453
C         11.19568        2.99100       11.16457
C          2.96156        2.34791       10.94673
H          3.51714        2.18455       11.67553
C          3.36911        1.94459        9.70720
H          4.19364        1.52413        9.61083
C          2.56098        2.15593        8.57516
C         10.80879        2.81586        8.77832
H         10.24682        2.98114        8.05519
C         10.44115        3.22801       10.02258
H          9.64106        3.69270       10.11280
C          4.21032        1.10065        7.09766
H          4.90171        1.75849        7.20279
H          4.23799        0.74639        6.20596
H          8.40479       14.38675        7.72844
C          2.06734        1.91270        6.17920
H          1.20593        1.52567        6.35276
H          2.45913        1.49145        5.41038
H          1.96861        2.85202        6.01417
C         10.92299       10.06792        7.25394
H         10.83395        9.37762        7.91550
H         10.05508       10.30881        6.92339
H         11.33838       10.83815        7.65030
C          3.56986        9.21662        6.48157
C          4.13897        9.18660        7.71234
H         13.07893        9.44125        8.45061
C          5.46686        8.78292        7.90247
C          6.20548        8.38677        6.77044
C          5.61022        8.42419        5.51385
H          6.09523        8.16427        4.76398
C          4.31796        8.83979        5.37676
H          3.93308        8.87039        4.52957
C          6.11637        8.73605        9.22322
C          5.40513        9.11397       10.43032
H          4.51911        9.39164       10.37562
C          6.01424        9.06712       11.63055
H          6.89153        8.75808       11.61871
C          5.50643        9.42900       12.93638
C          6.34324        9.28674       14.04355
H          7.19408        8.93214       13.91782
C          5.96093        9.64864       15.30440
H          6.54778        9.53125       16.01568
C          4.68862       10.19780       15.53573
C         13.28078       10.32691       14.42263
H         12.42766       10.67659       14.54055
C         13.68189        9.94778       13.17221
H         13.09034       10.03982       12.45927
C         12.42835       11.13736       17.01820
H         12.28210       11.89479       16.44661
H         12.35339       11.41005       17.93595
H         11.77153       10.46344       16.83020
C          5.15701       10.38133       17.93690
H          5.29255        9.43921       18.05671
H         14.18618       10.74788       18.71969
H          6.00409       10.81178       17.79388
C          7.40084        7.35877       19.63673
H          6.66180        7.92000       19.39450
H          7.09561        6.45412       19.73783
H          8.06993        7.39440       18.94936
C          8.26053        9.13412       20.98494
C          8.45875        9.56951       22.29859
H          8.42379        8.95229       22.99353
C          8.70268       10.87519       22.58225
H          8.83611       11.14439       23.46235
C          8.75328       11.80099       21.56221
C          8.63520       11.39741       20.21423
C          8.38133       10.03234       19.95425
H          8.29358        9.73801       19.07485
C          8.81688       12.37887       19.13026
C          8.96564       11.96257       17.75079
H          8.92635       11.05843       17.54053
C          9.16060       12.85989       16.77076
H          9.13855       13.75641       17.01962
C          9.40171       12.58550       15.36691
C          9.57748       13.62639       14.47094
H          9.54493       14.49996       14.78917
C          9.79937       13.41751       13.12438
H          9.92719       14.14632       12.56108
C          9.83393       12.12303       12.59921
C          9.65218       11.06364       13.50701
H          9.67026       10.18651       13.19565
C          9.44803       11.29869       14.83392
H          9.33621       10.57339       15.40479
C          9.87794       10.56480       10.70948
H         10.65980       10.05192       10.92968
H          9.79090       10.62327        9.75526
H          9.10155       10.13832       11.07648
C         10.21115       12.97515       10.33205
H          9.45828       13.56996       10.36141
H         10.30558       12.62133        9.44508
H         11.00723       13.45513       10.57215
C          8.01877       10.94165        0.78303
H          8.38978       10.30254        0.17048
H          7.09377       11.08734        0.57300
H          8.09341       10.60481        1.67876
C         10.07711       12.15255        0.93527
C         10.69535       13.39684        0.84388
H          6.13504        0.15176        0.62509
C         12.03270       13.51899        1.07426
H          8.37381        0.35891        1.03235
C         12.80767       12.39610        1.37284
C         12.20250       11.13483        1.44719
C         10.80939       11.03177        1.22651
H         10.38978       10.20376        1.27860
C          3.59867        9.96333        1.73487
C          3.06165        8.61171        1.75571
H         11.60715        8.46171        1.57221
C          3.87565        7.58276        2.04103
H          4.76587        7.81150        2.18310
C          3.58280        6.18982        2.15965
C          4.58236        5.31398        2.57141
H          5.42954        5.65734        2.74189
C          4.37834        3.97169        2.73810
H          5.08013        3.42900        3.01419
C          3.11480        3.40877        2.49422
C          2.09832        4.28272        2.06210
H         10.69589        3.94337        1.88949
C          2.32993        5.62048        1.89186
H         11.08496        6.16509        1.59115
C          1.53700        1.55136        2.50985
H          0.93917        2.02531        3.09232
H          1.53267        0.61782        2.73716
H          1.24987        1.65879        1.60062
C          3.97430        1.15091        2.87070
H          4.61488        1.24612        2.16179
H          7.69485       14.25029        2.87686
H          4.39711        1.34098        3.71268
H          7.68129        8.08954        7.68582
H          8.85478       13.56685       21.16324
H          5.02265       11.78561        1.65745
N          2.92889        1.71169        7.33207
N         13.74497       10.60596       16.78213
N         10.00404       11.89131       11.26307
N          2.87784        2.08037        2.65973
O          5.10231        2.85030       17.52514
O          9.31010        4.52420       17.29665
O          9.45587        4.21531       14.79651
O         11.72505        9.59761        6.18252
O          7.31174        8.36940        9.30254
O          7.49303        7.95152        6.84668
O          7.95221        7.80746       20.85235
O          8.93519       13.10854       21.89630
O          8.87757       13.59370       19.43049
O          8.72645       12.16452        0.67648
O          4.68299       12.58000        1.57481
O          4.82599       10.13336        1.95484
H          9.09212        4.63490       16.46792
C          6.82043        5.62886       12.96834
H          6.03857        6.14173       12.74814
C          5.47655       12.17649        5.11701
H          5.94154       11.92894        4.34962
C         13.60524       12.59810        5.01449
H         13.19448       12.63842        4.18150
C         12.90227       12.95956        6.14984
C         13.54003       12.93494        7.36333
H         13.07233       13.20263        8.12149
C          5.42980       12.51982        7.50563
C          6.10625       12.12008        6.34992
C         10.85982       13.19732        4.94038
H         10.97702       12.30776        4.60060
H          9.92807       13.35439        5.10967
H         11.17812       13.83174        4.29516
C          6.09714       12.45795        8.83064
C          5.42660       12.92967       10.02282
H         14.04491       13.34720        9.95179
C         14.63103       14.28095       17.49862
C          5.97923       12.77169       11.21713
H          6.79259       12.32015       11.22329
C          5.50269       13.20266       12.51325
C         13.73681       13.84575       12.73109
H         13.18123       14.00911       12.00229
C         13.32925       14.24907       13.97062
H         12.50473       14.66953       14.06699
C         14.13739       14.03772       15.10266
C          5.88958       13.37780       14.89951
H          6.45154       13.21251       15.62263
C          6.25722       12.96564       13.65524
H          7.05731       12.50096       13.56502
C         12.48805       15.09300       16.58016
H         11.79666       14.43517       16.47503
H         12.46038       15.44726       17.47186
H          8.29358        1.80691       15.94938
C          4.27001        5.05630        6.65962
H          4.41627        4.29886        7.23121
H         15.49244       14.66798       17.32506
H         14.23924       14.70220       18.26744
H         14.72976       13.34164       17.66365
C          5.77538        6.12574       16.42388
H          5.86442        6.81604       15.76233
H          6.64329        5.88485       16.75443
H          5.35999        5.35551       16.02752
C         13.12851        6.97704       17.19625
C         12.55940        7.00705       15.96548
H          3.61944        6.75241       15.22721
C         11.23151        7.41074       15.77535
C         10.49289        7.80689       16.90738
C         11.08815        7.76947       18.16397
H         10.60313        8.02939       18.91384
C         12.38041        7.35386       18.30106
H         12.76529        7.32326       19.14825
C         10.58200        7.45760       14.45460
C         11.29324        7.07969       13.24750
H         12.17926        6.80201       13.30220
C         10.68413        7.12653       12.04728
H          9.80683        7.43558       12.05911
C         11.19194        6.76466       10.74144
C         10.35513        6.90692        9.63427
H          9.50429        7.26152        9.76000
C         10.73744        6.54501        8.37342
H         10.15059        6.66241        7.66214
C         12.00975        5.99585        8.14209
C          3.41759        5.86674        9.25519
H          4.27070        5.51706        9.13727
C          3.01648        6.24587       10.50561
H          3.60803        6.15383       11.21855
H          4.34497        4.78361        5.74187
H          4.92684        5.73021        6.84763
C         11.54135        5.81233        5.74092
H         11.40582        6.75444        5.62111
H          2.51219        5.44578        4.95814
H         10.69428        5.38188        5.88394
C          9.29752        8.83488        4.04109
H         10.03657        8.27366        4.28332
H          9.60276        9.73954        3.93999
H          8.62844        8.79926        4.72846
C          8.43784        7.05953        2.69288
C          8.23962        6.62414        1.37923
H          8.27458        7.24136        0.68429
C          7.99569        5.31847        1.09557
H          7.86225        5.04927        0.21547
C          7.94509        4.39267        2.11561
C          8.06317        4.79625        3.46359
C          8.31704        6.16131        3.72357
H          8.40479        6.45564        4.60297
C          7.88149        3.81478        4.54756
C          7.73273        4.23108        5.92703
H          7.77202        5.13522        6.13729
C          7.53777        3.33376        6.90706
H          7.55981        2.43724        6.65820
C          7.29666        3.60815        8.31092
C          7.12089        2.56726        9.20688
H          7.15343        1.69370        8.88865
C          6.89899        2.77614       10.55344
H          6.77117        2.04733       11.11674
C          6.86444        4.07063       11.07862
C          7.04619        5.13002       10.17081
H          7.02810        6.00714       10.48217
C          7.25034        4.89496        8.84390
H          7.36216        5.62027        8.27303
H          6.90747        5.57039       13.92256
H          7.59682        6.05533       12.60134
C          6.48722        3.21851       13.34577
H          7.24009        2.62369       13.31641
H          6.39279        3.57233       14.23274
H          5.69114        2.73852       13.10567
C          8.67959        5.25201       22.89480
H          8.30859        5.89112       23.50734
H          9.60460        5.10632       23.10482
H          8.60496        5.58885       21.99906
C          6.62126        4.04111       22.74255
C          6.00302        2.79681       22.83394
H         10.56333       16.04189       23.05273
C          4.66566        2.67466       22.60356
H          8.32456       15.83475       22.64547
C          3.89070        3.79756       22.30498
C          4.49587        5.05883       22.23063
C          5.88898        5.16188       22.45131
H          6.30858        5.98990       22.39922
C         13.09970        6.23033       21.94295
C         13.63672        7.58195       21.92211
H          5.09122        7.73194       22.10561
C         12.82272        8.61089       21.63679
H         11.93250        8.38215       21.49473
C         13.11557       10.00383       21.51817
C         12.11601       10.87967       21.10641
H         11.26883       10.53632       20.93593
C         12.32003       12.22196       20.93972
H         11.61824       12.76465       20.66363
C         13.58357       12.78489       21.18360
C         14.60004       11.91093       21.61572
H          6.00248       12.25028       21.78833
C         14.36844       10.57317       21.78596
H          5.61341       10.02857       22.08667
C         15.16137       14.64230       21.16797
H         15.75920       14.16835       20.58550
H         15.16570       15.57584       20.94066
H         15.44850       14.53487       22.07720
C         12.72407       15.04275       20.80712
H         12.08348       14.94753       21.51604
H          9.00352        1.94337       20.80097
H         12.30126       14.85267       19.96514
H          9.01707        8.10411       15.99200
H          7.84359        2.62680        2.51458
H         11.67572        4.40804       22.02037
N         13.76948       14.48197       16.34575
N          2.95340        5.58770        6.89569
N          6.69432        4.30234       12.41476
N         13.82052       14.11329       21.01809
O         11.59606       13.34336        6.15268
O          7.38826       11.66946        6.38117
O          7.24249       11.97834        8.88131
O          4.97332        6.59605       17.49531
O          9.38663        7.82426       14.37528
O          9.20534        8.24213       16.83114
O          8.74615        8.38619        2.82547
O          7.76318        3.08511        1.78152
O          7.82080        2.59995        4.24733
O          7.97191        4.02914       23.00135
O         12.01538        3.61365       22.10301
O         11.87237        6.06029       21.72298
H          7.60624       11.55876        7.20990
