27

F    3.991443000   9.952530000  17.864863000
C    3.680804000  10.352068000  16.584185000
C    3.867232000  11.682836000  16.264946000
C    3.204553000   9.399635000  15.683360000
H    4.262033000  12.394457000  16.994251000
C    3.587929000  12.095431000  14.950116000
H    3.085571000   8.355346000  15.977053000
C    2.913115000   9.829642000  14.394982000
O    3.804653000  13.377634000  14.612348000
C    3.089686000  11.164375000  13.983301000
H    2.553779000   9.085566000  13.683926000
H    3.548339000  13.385184000  13.572688000
C    2.825876000  11.642445000  12.606355000
O    3.097112000  12.881803000  12.345659000
C    2.285210000  10.782652000  11.607974000
H    2.035205000   9.756223000  11.863779000
C    2.067453000  11.247331000  10.323543000
H    2.326833000  12.284593000  10.090836000
N    1.575769000  10.546920000   9.300419000
C    1.218343000   9.143661000   9.444609000
C    1.325353000  11.165085000   8.004846000
H    2.078339000   8.568269000   9.823731000
H    0.929447000   8.746044000   8.462578000
H    0.375584000   9.031414000  10.146758000
H    0.247424000  11.130953000   7.769871000
H    1.661520000  12.206732000   8.034660000
H    1.867361000  10.616978000   7.214694000
27

F    3.986611000   9.857462000  17.740225000
C    3.695967000  10.316489000  16.502289000
C    3.891294000  11.650324000  16.233706000
C    3.214233000   9.403777000  15.578168000
H    4.277217000  12.328270000  16.983724000
C    3.595524000  12.118930000  14.947801000
H    3.092097000   8.362983000  15.837536000
C    2.918858000   9.879584000  14.318869000
O    3.801161000  13.406779000  14.692272000
C    3.083546000  11.223844000  13.961389000
H    2.558169000   9.169787000  13.585633000
H    3.499012000  13.481256000  13.698272000
C    2.777870000  11.693049000  12.595038000
O    3.017235000  12.897316000  12.267035000
C    2.239301000  10.801755000  11.633229000
H    1.995322000   9.785369000  11.906527000
C    2.055111000  11.244345000  10.350757000
H    2.332907000  12.268839000  10.113443000
N    1.585489000  10.524067000   9.337684000
C    1.196898000   9.143145000   9.517540000
C    1.386497000  11.105489000   8.027863000
H    2.025099000   8.570866000   9.946764000
H    0.938406000   8.726629000   8.544489000
H    0.329475000   9.083459000  10.181286000
H    0.329587000  11.108699000   7.759292000
H    1.741124000  12.120591000   8.079571000
H    1.941957000  10.552705000   7.265929000
27

F    4.085645000   9.794258000  17.740343000
C    3.778549000  10.245833000  16.503637000
C    3.949834000  11.582153000  16.231029000
C    3.305357000   9.323353000  15.584817000
H    4.329863000  12.267952000  16.976905000
C    3.637108000  12.043120000  14.946374000
H    3.202335000   8.281224000  15.847107000
C    2.993100000   9.791582000  14.326752000
O    3.819556000  13.333658000  14.686835000
C    3.132938000  11.137634000  13.965449000
H    2.638947000   9.074389000  13.597537000
H    3.509077000  13.401054000  13.694899000
C    2.809721000  11.598868000  12.600421000
O    3.026754000  12.806242000  12.268330000
C    2.279079000  10.696784000  11.644282000
H    2.053929000   9.677074000  11.921333000
C    2.078372000  11.133592000  10.362307000
H    2.337457000  12.162043000  10.120978000
N    1.613465000  10.403533000   9.354070000
C    1.249090000   9.016752000   9.539443000
C    1.395463000  10.978852000   8.044580000
H    2.089715000   8.459145000   9.963799000
H    0.990538000   8.593988000   8.569106000
H    0.387568000   8.944112000  10.209555000
H    0.336741000  10.964020000   7.783645000
H    1.733600000  11.999786000   8.091729000
H    1.954505000  10.433742000   7.279742000
27

F    4.058382000  10.030524000  17.818231000
C    3.770836000  10.376218000  16.567256000
C    3.911513000  11.686563000  16.190055000
C    3.344527000   9.372178000  15.718100000
H    4.252491000  12.439971000  16.875732000
C    3.599181000  12.027589000  14.875048000
H    3.274421000   8.362007000  16.066605000
C    3.031080000   9.726091000  14.427738000
O    3.756012000  13.282478000  14.487349000
C    3.125523000  11.046624000  13.982007000
H    2.712217000   8.949645000  13.755599000
H    3.475566000  13.268296000  13.528821000
C    2.785863000  11.475610000  12.615950000
O    2.946103000  12.676719000  12.323012000
C    2.253352000  10.588873000  11.639562000
H    2.020810000   9.563968000  11.862971000
C    2.077209000  11.103013000  10.392522000
H    2.356897000  12.136141000  10.236004000
N    1.607235000  10.462485000   9.329652000
C    1.184348000   9.089348000   9.423144000
C    1.423439000  11.139513000   8.068327000
H    1.984582000   8.472732000   9.829311000
H    0.930201000   8.738940000   8.430413000
H    0.308605000   9.025457000  10.062909000
H    0.374926000  11.208770000   7.815491000
H    1.812837000  12.129024000   8.186582000
H    1.948278000  10.632584000   7.266232000
27

F    4.048330000   9.941394000  17.802431000
C    3.753700000  10.291301000  16.554280000
C    3.869167000  11.607002000  16.187302000
C    3.346282000   9.285970000  15.697413000
H    4.195987000  12.361403000  16.878758000
C    3.549817000  11.952269000  14.875090000
H    3.295629000   8.271951000  16.038024000
C    3.025582000   9.643907000  14.409946000
O    3.682490000  13.212917000  14.497178000
C    3.094599000  10.969446000  13.974534000
H    2.721318000   8.866790000  13.731842000
H    3.401956000  13.200874000  13.538646000
C    2.746225000  11.402532000  12.611969000
O    2.883373000  12.608735000  12.328392000
C    2.230329000  10.513445000  11.628822000
H    2.017497000   9.482570000  11.844270000
C    2.043867000  11.033859000  10.385891000
H    2.303707000  12.073332000  10.237382000
N    1.585758000  10.392799000   9.318172000
C    1.189211000   9.011146000   9.401037000
C    1.388527000  11.076031000   8.062234000
H    2.001248000   8.406771000   9.802145000
H    0.941378000   8.663719000   8.405665000
H    0.315121000   8.925541000  10.040525000
H    0.338775000  11.127224000   7.810239000
H    1.759007000  12.071845000   8.188118000
H    1.922608000  10.585505000   7.256052000
27

F    4.070734000   9.863198000  17.772623000
C    3.768494000  10.266961000  16.529678000
C    3.913695000  11.594718000  16.212566000
C    3.324936000   9.304791000  15.639306000
H    4.269724000  12.313498000  16.933475000
C    3.596673000  12.001811000  14.914026000
H    3.246571000   8.274749000  15.938642000
C    3.007567000   9.721697000  14.366580000
O    3.755726000  13.279947000  14.598581000
C    3.114349000  11.059090000  13.970348000
H    2.675968000   8.975687000  13.660934000
H    3.458527000  13.309355000  13.621589000
C    2.779193000  11.507242000  12.606408000
O    2.958926000  12.714903000  12.296916000
C    2.255465000  10.611152000  11.637572000
H    2.035880000   9.585780000  11.885868000
C    2.061881000  11.087354000  10.373036000
H    2.321611000  12.121919000  10.175008000
N    1.600283000  10.398251000   9.335983000
C    1.220546000   9.012906000   9.473357000
C    1.392444000  11.024498000   8.050239000
H    2.047681000   8.433197000   9.887828000
H    0.967264000   8.625122000   8.490530000
H    0.352689000   8.933899000  10.128748000
H    0.337735000  11.040907000   7.792070000
H    1.745944000  12.034544000   8.134564000
H    1.939952000  10.504147000   7.265828000
27

F    4.068837000   9.866039000  17.777582000
C    3.767365000  10.269719000  16.534424000
C    3.912600000  11.597484000  16.217362000
C    3.324523000   9.307459000  15.643792000
H    4.268057000  12.316336000  16.938481000
C    3.596381000  12.004490000  14.918599000
H    3.246097000   8.277417000  15.943113000
C    3.007939000   9.724279000  14.370842000
O    3.755473000  13.282637000  14.603214000
C    3.114805000  11.061672000  13.974635000
H    2.676905000   8.978200000  13.665004000
H    3.458915000  13.311971000  13.626025000
C    2.780491000  11.509733000  12.610458000
O    2.960268000  12.717407000  12.301043000
C    2.257522000  10.613541000  11.641308000
H    2.037909000   9.588148000  11.889494000
C    2.064710000  11.089673000  10.376628000
H    2.324433000  12.124266000  10.178736000
N    1.603888000  10.400473000   9.339294000
C    1.224244000   9.015083000   9.476465000
C    1.396816000  11.026648000   8.053391000
H    2.051182000   8.435497000   9.891502000
H    0.971663000   8.627231000   8.493485000
H    0.355966000   8.935983000  10.131285000
H    0.342276000  11.042909000   7.794525000
H    1.750126000  12.036744000   8.137915000
H    1.944910000  10.506343000   7.269360000
27

F    4.064018000   9.856289000  17.793621000
C    3.766383000  10.260117000  16.549413000
C    3.907076000  11.591459000  16.233329000
C    3.333953000   9.300482000  15.644247000
H    4.252884000  12.311064000  16.962079000
C    3.596626000  12.005176000  14.932257000
H    3.260410000   8.265479000  15.939327000
C    3.023253000   9.722260000  14.367931000
O    3.759061000  13.292714000  14.629442000
C    3.125106000  11.064857000  13.979056000
H    2.703805000   8.977609000  13.652600000
H    3.487693000  13.368566000  13.661812000
C    2.780759000  11.527833000  12.616781000
O    2.964178000  12.742372000  12.336132000
C    2.256116000  10.622159000  11.637959000
H    2.040618000   9.595027000  11.889023000
C    2.064030000  11.087259000  10.363875000
H    2.316140000  12.123397000  10.163534000
N    1.605054000  10.394925000   9.322620000
C    1.213496000   9.010604000   9.471222000
C    1.392876000  11.019164000   8.030985000
H    2.027823000   8.427677000   9.910051000
H    0.975290000   8.604411000   8.490144000
H    0.331446000   8.943291000  10.111261000
H    0.331374000  11.046230000   7.786555000
H    1.766462000  12.034048000   8.075798000
H    1.916746000  10.471204000   7.246703000
27

F    4.054389000   9.846263000  17.805463000
C    3.760626000  10.249008000  16.559984000
C    3.907655000  11.579118000  16.241608000
C    3.325552000   9.289538000  15.655909000
H    4.255361000  12.298601000  16.969575000
C    3.601216000  11.991698000  14.939224000
H    3.246999000   8.255430000  15.952832000
C    3.018856000   9.710227000  14.378266000
O    3.769773000  13.277936000  14.634237000
C    3.127218000  11.051622000  13.987012000
H    2.697379000   8.965610000  13.663810000
H    3.500378000  13.353121000  13.666004000
C    2.787201000  11.513492000  12.623275000
O    2.976386000  12.726683000  12.340629000
C    2.260275000  10.608243000  11.645285000
H    2.039877000   9.582542000  11.897935000
C    2.072376000  11.071743000  10.369994000
H    2.329339000  12.106388000  10.168111000
N    1.612153000  10.379427000   9.329278000
C    1.214314000   8.997111000   9.479846000
C    1.404886000  11.002116000   8.036098000
H    2.025348000   8.411481000   9.921168000
H    0.976003000   8.590085000   8.499138000
H    0.330896000   8.934861000  10.118508000
H    0.343927000  11.033338000   7.789810000
H    1.782814000  12.015448000   8.079617000
H    1.927691000  10.450383000   7.253753000
27

F    4.078566000   9.867212000  17.829121000
C    3.775128000  10.256806000  16.580308000
C    3.898557000  11.589239000  16.253796000
C    3.356228000   9.289587000  15.672381000
H    4.231468000  12.320727000  16.980532000
C    3.585964000  11.989281000  14.948715000
H    3.298715000   8.251752000  15.971659000
C    3.043818000   9.701595000  14.390367000
O    3.731467000  13.281052000  14.641616000
C    3.133794000  11.044617000  13.992161000
H    2.743773000   8.947363000  13.674363000
H    3.450253000  13.329962000  13.691406000
C    2.794916000  11.507676000  12.618540000
O    2.984213000  12.716836000  12.323280000
C    2.256114000  10.593811000  11.645993000
H    2.021133000   9.572304000  11.908327000
C    2.082430000  11.054516000  10.365934000
H    2.351387000  12.088512000  10.167501000
N    1.620633000  10.373834000   9.315048000
C    1.184176000   9.001130000   9.459949000
C    1.418927000  11.011674000   8.026274000
H    1.965775000   8.396406000   9.931752000
H    0.969326000   8.589177000   8.473755000
H    0.276664000   8.962529000  10.068966000
H    0.352001000  11.101886000   7.806119000
H    1.860000000  12.006602000   8.046873000
H    1.888282000  10.424005000   7.233512000
27

F    4.053549000   9.867542000  17.819982000
C    3.756159000  10.253494000  16.568586000
C    3.890265000  11.583430000  16.236159000
C    3.332414000   9.285139000  15.664125000
H    4.226739000  12.315847000  16.960314000
C    3.583940000  11.979632000  14.928423000
H    3.266469000   8.249174000  15.968110000
C    3.026302000   9.693413000  14.379400000
O    3.739770000  13.268836000  14.615655000
C    3.127215000  11.033848000  13.975145000
H    2.722498000   8.938061000  13.666168000
H    3.461328000  13.315355000  13.664509000
C    2.795246000  11.492937000  12.598508000
O    2.994227000  12.699265000  12.298077000
C    2.252160000  10.578515000  11.628871000
H    2.008968000   9.560015000  11.895380000
C    2.085126000  11.034469000  10.346228000
H    2.362224000  12.065508000  10.143648000
N    1.620965000  10.352285000   9.297360000
C    1.174003000   8.983537000   9.447565000
C    1.427242000  10.985534000   8.005102000
H    1.949911000   8.375283000   9.924195000
H    0.958606000   8.568553000   8.462763000
H    0.264693000   8.954502000  10.054428000
H    0.361572000  11.082587000   7.781793000
H    1.875608000  11.977264000   8.022174000
H    1.894241000  10.390696000   7.216304000
27

F    4.065299000   9.852653000  17.812929000
C    3.758873000  10.247654000  16.565364000
C    3.908764000  11.577390000  16.235986000
C    3.314345000   9.289263000  15.660616000
H    4.267884000  12.301954000  16.958185000
C    3.598280000  11.981787000  14.932330000
H    3.237670000   8.251846000  15.959801000
C    3.001304000   9.707238000  14.381034000
O    3.791296000  13.270046000  14.620551000
C    3.114375000  11.047981000  13.981363000
H    2.678915000   8.958891000  13.667691000
H    3.537994000  13.333232000  13.664343000
C    2.763618000  11.515650000  12.611154000
O    2.936387000  12.726944000  12.319471000
C    2.231657000  10.593884000  11.642239000
H    2.011036000   9.569609000  11.908583000
C    2.058527000  11.049204000  10.361115000
H    2.308635000  12.088933000  10.162667000
N    1.625398000  10.356486000   9.305877000
C    1.216932000   8.974784000   9.446799000
C    1.412462000  10.992324000   8.018556000
H    1.999398000   8.392932000   9.946301000
H    1.046077000   8.551545000   8.456168000
H    0.290952000   8.912648000  10.027117000
H    0.343260000  11.100996000   7.812122000
H    1.875153000  11.977924000   8.029217000
H    1.861346000  10.392318000   7.222677000
27

F    4.059497000   9.853954000  17.816750000
C    3.755058000  10.247937000  16.568378000
C    3.904787000  11.577534000  16.238363000
C    3.312669000   9.288684000  15.663496000
H    4.262222000  12.302789000  16.960704000
C    3.596382000  11.980872000  14.933886000
H    3.236046000   8.251427000  15.963249000
C    3.001658000   9.705615000  14.383078000
O    3.789228000  13.269028000  14.621574000
C    3.114684000  11.046150000  13.982698000
H    2.680951000   8.956604000  13.669674000
H    3.537583000  13.331423000  13.664877000
C    2.766090000  11.512693000  12.611554000
O    2.938696000  12.723886000  12.319355000
C    2.236361000  10.589972000  11.642325000
H    2.015843000   9.565754000  11.908973000
C    2.065243000  11.044326000  10.360588000
H    2.315119000  12.084060000  10.161877000
N    1.634369000  10.350650000   9.305056000
C    1.226429000   8.968815000   9.446193000
C    1.423355000  10.985495000   8.016929000
H    2.008336000   8.387740000   9.947474000
H    1.057564000   8.544808000   8.455549000
H    0.299459000   8.906552000  10.024914000
H    0.354460000  11.093427000   7.808530000
H    1.885474000  11.971362000   8.027739000
H    1.873983000  10.385202000   7.222252000
27

F    4.099572000   9.840001000  17.799311000
C    3.778473000  10.238723000  16.555774000
C    3.900550000  11.574303000  16.236077000
C    3.346333000   9.280291000  15.645325000
H    4.248238000  12.301006000  16.962524000
C    3.575257000  11.981816000  14.937732000
H    3.292095000   8.238207000  15.935158000
C    3.019096000   9.702484000  14.370741000
O    3.733069000  13.281995000  14.640409000
C    3.107187000  11.047867000  13.980525000
H    2.711290000   8.952760000  13.651944000
H    3.463345000  13.361816000  13.691951000
C    2.753838000  11.520230000  12.611115000
O    2.950775000  12.725785000  12.317067000
C    2.212369000  10.598216000  11.646024000
H    1.968260000   9.581660000  11.922531000
C    2.066943000  11.041537000  10.357751000
H    2.342089000  12.073883000  10.150441000
N    1.639806000  10.344144000   9.302656000
C    1.187912000   8.977359000   9.455487000
C    1.452572000  10.972396000   8.007593000
H    1.931894000   8.388617000  10.004123000
H    1.053861000   8.534309000   8.467321000
H    0.233573000   8.949097000   9.992480000
H    0.390620000  11.153599000   7.808553000
H    1.988115000  11.921069000   7.993942000
H    1.848835000  10.326913000   7.219174000
27

F    4.083801000   9.852306000  17.789338000
C    3.767762000  10.248164000  16.543592000
C    3.899133000  11.581647000  16.218863000
C    3.331221000   9.288948000  15.636073000
H    4.250087000  12.308957000  16.943129000
C    3.579066000  11.986106000  14.918267000
H    3.269649000   8.248396000  15.929913000
C    3.009257000   9.708194000  14.359174000
O    3.745898000  13.284046000  14.616123000
C    3.106848000  11.051419000  13.963821000
H    2.698021000   8.957635000  13.642730000
H    3.478579000  13.361850000  13.666818000
C    2.759286000  11.520627000  12.591847000
O    2.964622000  12.723706000  12.293432000
C    2.213763000  10.598320000  11.629323000
H    1.962518000   9.584471000  11.909356000
C    2.073771000  11.037460000  10.339017000
H    2.356018000  12.067172000  10.128181000
N    1.644213000  10.338670000   9.285832000
C    1.183161000   8.975458000   9.443157000
C    1.463626000  10.962980000   7.987922000
H    1.922218000   8.384089000   9.995609000
H    1.048199000   8.529370000   8.456482000
H    0.227595000   8.955510000   9.978339000
H    0.403270000  11.150269000   7.786034000
H    2.005338000  11.908102000   7.971597000
H    1.857258000  10.311822000   7.202859000
27

F    4.043378000   9.859985000  17.800448000
C    3.747272000  10.252711000  16.548133000
C    3.886587000  11.584542000  16.222018000
C    3.320966000   9.291049000  15.639736000
H    4.229416000  12.312943000  16.948252000
C    3.584477000  11.984770000  14.916283000
H    3.250629000   8.252507000  15.936418000
C    3.017674000   9.706417000  14.357353000
O    3.752895000  13.281372000  14.612319000
C    3.122369000  11.047661000  13.958975000
H    2.711736000   8.954239000  13.640838000
H    3.495472000  13.350085000  13.654012000
C    2.789067000  11.512716000  12.583331000
O    2.990645000  12.717559000  12.287029000
C    2.237814000  10.595216000  11.622340000
H    1.982113000   9.583311000  11.903793000
C    2.084734000  11.037022000  10.334608000
H    2.361541000  12.067750000  10.122517000
N    1.645554000  10.338959000   9.285358000
C    1.197967000   8.971237000   9.442133000
C    1.435235000  10.971386000   7.995638000
H    1.948812000   8.385959000   9.984281000
H    1.057963000   8.528746000   8.454922000
H    0.248449000   8.937064000   9.987130000
H    0.372780000  11.170571000   7.820134000
H    1.986578000  11.909324000   7.970440000
H    1.802055000  10.320595000   7.198390000
27

F    4.041047000   9.861472000  17.801356000
C    3.745206000  10.254091000  16.548945000
C    3.882383000  11.586280000  16.223388000
C    3.321329000   9.291975000  15.639894000
H    4.223342000  12.315049000  16.950134000
C    3.580565000  11.986409000  14.917556000
H    3.252626000   8.253207000  15.936169000
C    3.018283000   9.707233000  14.357416000
O    3.746891000  13.283415000  14.614161000
C    3.120879000  11.048798000  13.959574000
H    2.714249000   8.954751000  13.640411000
H    3.490086000  13.351991000  13.655678000
C    2.787807000  11.513721000  12.583829000
O    2.987452000  12.719024000  12.288091000
C    2.238945000  10.595560000  11.622101000
H    1.984842000   9.583102000  11.903014000
C    2.086068000  11.037528000  10.334401000
H    2.361188000  12.068823000  10.122873000
N    1.648953000  10.339034000   9.284576000
C    1.203699000   8.970459000   9.440541000
C    1.438496000  10.971521000   7.994908000
H    1.955174000   8.386345000   9.983073000
H    1.065253000   8.528052000   8.453073000
H    0.253823000   8.934397000   9.984792000
H    0.375821000  11.168859000   7.818649000
H    1.988174000  11.910454000   7.970453000
H    1.807100000  10.321659000   7.197723000
27

F    4.089628000   9.851063000  17.785442000
C    3.768977000  10.249536000  16.538853000
C    3.905564000  11.582030000  16.216656000
C    3.322714000   9.291508000  15.638248000
H    4.268441000  12.305649000  16.936947000
C    3.578132000  11.985715000  14.918728000
H    3.254387000   8.252794000  15.932162000
C    2.996604000   9.711407000  14.362783000
O    3.744249000  13.281642000  14.612460000
C    3.094252000  11.053348000  13.966945000
H    2.676130000   8.961254000  13.650850000
H    3.469789000  13.337673000  13.649120000
C    2.747837000  11.522379000  12.596964000
O    2.966223000  12.725220000  12.298454000
C    2.199396000  10.611228000  11.632500000
H    1.932443000   9.603297000  11.915951000
C    2.065466000  11.046638000  10.340217000
H    2.345234000  12.075923000  10.125215000
N    1.657475000  10.337623000   9.285698000
C    1.221522000   8.965625000   9.438509000
C    1.451575000  10.971138000   7.994311000
H    1.954965000   8.401713000  10.024316000
H    1.138376000   8.509517000   8.451431000
H    0.247043000   8.916956000   9.937128000
H    0.397861000  11.217186000   7.825843000
H    2.048405000  11.879052000   7.950190000
H    1.776993000  10.296093000   7.200857000
27

F    4.084184000   9.863227000  17.779488000
C    3.765435000  10.260264000  16.531954000
C    3.906291000  11.591704000  16.207249000
C    3.316720000   9.301865000  15.632962000
H    4.270998000  12.315601000  16.926335000
C    3.580804000  11.993874000  14.908362000
H    3.245042000   8.263938000  15.928852000
C    2.992593000   9.720289000  14.356508000
O    3.751068000  13.288688000  14.599673000
C    3.094578000  11.061153000  13.958123000
H    2.670202000   8.969743000  13.645854000
H    3.477304000  13.343692000  13.636077000
C    2.750349000  11.528586000  12.587046000
O    2.972592000  12.730170000  12.286324000
C    2.199635000  10.617255000  11.624049000
H    1.929433000   9.610700000  11.909307000
C    2.067744000  11.050566000  10.330850000
H    2.350790000  12.078568000  10.114007000
N    1.658148000  10.340763000   9.277484000
C    1.217900000   8.970409000   9.432715000
C    1.454896000  10.972401000   7.984760000
H    1.949289000   8.405385000  10.020017000
H    1.133888000   8.512645000   8.446478000
H    0.243005000   8.925701000   9.930893000
H    0.402035000  11.221356000   7.815237000
H    2.054537000  11.878390000   7.939205000
H    1.778669000  10.294821000   7.192794000
27

F    4.063126000   9.871562000  17.786234000
C    3.755767000  10.264787000  16.536350000
C    3.886235000  11.597111000  16.212256000
C    3.329099000   9.300530000  15.632602000
H    4.233138000  12.324893000  16.935609000
C    3.574047000  11.996741000  14.908719000
H    3.266115000   8.262630000  15.928978000
C    3.014464000   9.715010000  14.352744000
O    3.737113000  13.290712000  14.600910000
C    3.108378000  11.056605000  13.954618000
H    2.707902000   8.961419000  13.638754000
H    3.479795000  13.346524000  13.634924000
C    2.771701000  11.517661000  12.580886000
O    2.977127000  12.722478000  12.281426000
C    2.220206000  10.606307000  11.618701000
H    1.951018000   9.598905000  11.901594000
C    2.081414000  11.043752000  10.327863000
H    2.371219000  12.069479000  10.111747000
N    1.652981000  10.341023000   9.277547000
C    1.195676000   8.977067000   9.435998000
C    1.457114000  10.972952000   7.984355000
H    1.929766000   8.396338000  10.003714000
H    1.079364000   8.526270000   8.450346000
H    0.232434000   8.950440000   9.956099000
H    0.403056000  11.207236000   7.807743000
H    2.041517000  11.889035000   7.949689000
H    1.798355000  10.304288000   7.192198000
27

F    4.061452000   9.863476000  17.787142000
C    3.754217000  10.257395000  16.537446000
C    3.884812000  11.589882000  16.214075000
C    3.327545000   9.293654000  15.633148000
H    4.231714000  12.317250000  16.937845000
C    3.572753000  11.990235000  14.910729000
H    3.264460000   8.255600000  15.928963000
C    3.013039000   9.708844000  14.353488000
O    3.735941000  13.284358000  14.603626000
C    3.107086000  11.050645000  13.956089000
H    2.706475000   8.955660000  13.639071000
H    3.478700000  13.340707000  13.637650000
C    2.770548000  11.512463000  12.582578000
O    2.976088000  12.717424000  12.283780000
C    2.219057000  10.601666000  11.619863000
H    1.949772000   9.594134000  11.902195000
C    2.080397000  11.039814000  10.329249000
H    2.370296000  12.065635000  10.113705000
N    1.651991000  10.337680000   9.278524000
C    1.194570000   8.973675000   9.436209000
C    1.456270000  10.970318000   7.985656000
H    1.928573000   8.392586000  10.003670000
H    1.078299000   8.523414000   8.450307000
H    0.231286000   8.946842000   9.956222000
H    0.402243000  11.204776000   7.809089000
H    2.040745000  11.886374000   7.951526000
H    1.797521000  10.302052000   7.193167000
27

F    4.055678000   9.867035000  17.788581000
C    3.750947000  10.259472000  16.538477000
C    3.889555000  11.590190000  16.211596000
C    3.317866000   9.295553000  15.637097000
H    4.240319000  12.317084000  16.933762000
C    3.578450000  11.990228000  14.907547000
H    3.248206000   8.259051000  15.936284000
C    3.005740000   9.709316000  14.356446000
O    3.745086000  13.281679000  14.596596000
C    3.107228000  11.049702000  13.956293000
H    2.694009000   8.956860000  13.643551000
H    3.483624000  13.337997000  13.632324000
C    2.771874000  11.509563000  12.583165000
O    2.983875000  12.713103000  12.281551000
C    2.221731000  10.598930000  11.619876000
H    1.953251000   9.590702000  11.900776000
C    2.080527000  11.039078000  10.330279000
H    2.365296000  12.066606000  10.117224000
N    1.651188000  10.338484000   9.278928000
C    1.204036000   8.970710000   9.432883000
C    1.449573000  10.974260000   7.988556000
H    1.947596000   8.390356000   9.988218000
H    1.078938000   8.526293000   8.445608000
H    0.247134000   8.935310000   9.963461000
H    0.392706000  11.194611000   7.812713000
H    2.020205000  11.899196000   7.960202000
H    1.801211000  10.315194000   7.193019000
27

F    4.058946000   9.866479000  17.790599000
C    3.753164000  10.259190000  16.540837000
C    3.889329000  11.590362000  16.214782000
C    3.321527000   9.295093000  15.638954000
H    4.239017000  12.317406000  16.937320000
C    3.577145000  11.990697000  14.911082000
H    3.253781000   8.258276000  15.937488000
C    3.008304000   9.709137000  14.358662000
O    3.741413000  13.282642000  14.600922000
C    3.107311000  11.049959000  13.959351000
H    2.697697000   8.956595000  13.645367000
H    3.479576000  13.339125000  13.636762000
C    2.770753000  11.510119000  12.586619000
O    2.980543000  12.714227000  12.285726000
C    2.221943000  10.599142000  11.622895000
H    1.955322000   9.590260000  11.903216000
C    2.079592000  11.039878000  10.333624000
H    2.362487000  12.068046000  10.121156000
N    1.651189000  10.339210000   9.281941000
C    1.206496000   8.970549000   9.435135000
C    1.448082000  10.975467000   7.992040000
H    1.951238000   8.391148000   9.989880000
H    1.081900000   8.526553000   8.447606000
H    0.249810000   8.933115000   9.965962000
H    0.390778000  11.194067000   7.816641000
H    2.017073000  11.901427000   7.964124000
H    1.800655000  10.317539000   7.195975000
27

F    4.062937000   9.862856000  17.788126000
C    3.755475000  10.257043000  16.539264000
C    3.889867000  11.588901000  16.215064000
C    3.323981000   9.293847000  15.636086000
H    4.239588000  12.315088000  16.938624000
C    3.575935000  11.991105000  14.912263000
H    3.257792000   8.256406000  15.933157000
C    3.009232000   9.709619000  14.356660000
O    3.738572000  13.283119000  14.603231000
C    3.106282000  11.051272000  13.959498000
H    2.699234000   8.958059000  13.642015000
H    3.477026000  13.338520000  13.639253000
C    2.768491000  11.513183000  12.587702000
O    2.975728000  12.718587000  12.289106000
C    2.218361000  10.602894000  11.623477000
H    1.951058000   9.594051000  11.903610000
C    2.077548000  11.042383000  10.333480000
H    2.361854000  12.069936000  10.119889000
N    1.650948000  10.339649000   9.282289000
C    1.204550000   8.971887000   9.438481000
C    1.451697000  10.972250000   7.989821000
H    1.946926000   8.394172000   9.998277000
H    1.083432000   8.524401000   8.452001000
H    0.245691000   8.936700000   9.965738000
H    0.395374000  11.194484000   7.811912000
H    2.024877000  11.895675000   7.958783000
H    1.802618000  10.309622000   7.196858000
27

F    4.063595000   9.863961000  17.787314000
C    3.756132000  10.258076000  16.538430000
C    3.890570000  11.589907000  16.214139000
C    3.324590000   9.294836000  15.635321000
H    4.240328000  12.316130000  16.937646000
C    3.576637000  11.992037000  14.911315000
H    3.258366000   8.257418000  15.932462000
C    3.009840000   9.710535000  14.355871000
O    3.739319000  13.284024000  14.602194000
C    3.106937000  11.052158000  13.958619000
H    2.699806000   8.958938000  13.641281000
H    3.477763000  13.339371000  13.638217000
C    2.769145000  11.513989000  12.586797000
O    2.976424000  12.719366000  12.288117000
C    2.218969000  10.603657000  11.622639000
H    1.951632000   9.594843000  11.902843000
C    2.078155000  11.043065000  10.332615000
H    2.362497000  12.070593000  10.118951000
N    1.651516000  10.340278000   9.281476000
C    1.205068000   8.972543000   9.437765000
C    1.452272000  10.972799000   7.988968000
H    1.947430000   8.394836000   9.997590000
H    1.083921000   8.524995000   8.451316000
H    0.246214000   8.937427000   9.965037000
H    0.395955000  11.195061000   7.811058000
H    2.025486000  11.896201000   7.957861000
H    1.803157000  10.310106000   7.196044000
27

F    4.064810000   9.865791000  17.788581000
C    3.756766000  10.258916000  16.539519000
C    3.890294000  11.590633000  16.214471000
C    3.325850000   9.295001000  15.636729000
H    4.239715000  12.317386000  16.937703000
C    3.576123000  11.992033000  14.911485000
H    3.260504000   8.257628000  15.934437000
C    3.010618000   9.709910000  14.357120000
O    3.738956000  13.283929000  14.602125000
C    3.106677000  11.051496000  13.959108000
H    2.701214000   8.957725000  13.642884000
H    3.477952000  13.339726000  13.638038000
C    2.767767000  11.512824000  12.587133000
O    2.975783000  12.717753000  12.287300000
C    2.218106000  10.602255000  11.622702000
H    1.950292000   9.593522000  11.902663000
C    2.078046000  11.042097000  10.332667000
H    2.362663000  12.069717000  10.119592000
N    1.651472000  10.340204000   9.280839000
C    1.204152000   8.972591000   9.436047000
C    1.452862000  10.973783000   7.988709000
H    1.946109000   8.393975000   9.995583000
H    1.082920000   8.525769000   8.449218000
H    0.245102000   8.937612000   9.963070000
H    0.396847000  11.198215000   7.811231000
H    2.028043000  11.896059000   7.957498000
H    1.802081000  10.310602000   7.195435000
27

F    4.063918000   9.865045000  17.788101000
C    3.755913000  10.258161000  16.539027000
C    3.889508000  11.589866000  16.213956000
C    3.324971000   9.294248000  15.636247000
H    4.238949000  12.316616000  16.937181000
C    3.575379000  11.991255000  14.910957000
H    3.259572000   8.256884000  15.933972000
C    3.009780000   9.709148000  14.356625000
O    3.738276000  13.283138000  14.601575000
C    3.105907000  11.050722000  13.958588000
H    2.700355000   8.956963000  13.642396000
H    3.477292000  13.338929000  13.637483000
C    2.767043000  11.512039000  12.586599000
O    2.975118000  12.716954000  12.286747000
C    2.217357000  10.601478000  11.622175000
H    1.949493000   9.592762000  11.902151000
C    2.077341000  11.041301000  10.332130000
H    2.362008000  12.068904000  10.119041000
N    1.650754000  10.339409000   9.280307000
C    1.203369000   8.971818000   9.435533000
C    1.452196000  10.972972000   7.988161000
H    1.945290000   8.393179000   9.995092000
H    1.082135000   8.524983000   8.448709000
H    0.244308000   8.936893000   9.962538000
H    0.396194000  11.197449000   7.810660000
H    2.027419000  11.895222000   7.956944000
H    1.801399000  10.309761000   7.194907000
27

F    4.064144000   9.864509000  17.787623000
C    3.755911000  10.257909000  16.538665000
C    3.889851000  11.589637000  16.213730000
C    3.324406000   9.294258000  15.635869000
H    4.239697000  12.316191000  16.936969000
C    3.575557000  11.991252000  14.910854000
H    3.258753000   8.256855000  15.933455000
C    3.009050000   9.709417000  14.356399000
O    3.738771000  13.283195000  14.601529000
C    3.105698000  11.050975000  13.958492000
H    2.699238000   8.957448000  13.642068000
H    3.477112000  13.339275000  13.637590000
C    2.767066000  11.512445000  12.586535000
O    2.974889000  12.717416000  12.286860000
C    2.217282000  10.601751000  11.622318000
H    1.949738000   9.592987000  11.902494000
C    2.077093000  11.041456000  10.332275000
H    2.361573000  12.069088000  10.119010000
N    1.650737000  10.339371000   9.280517000
C    1.203834000   8.971607000   9.435828000
C    1.452255000  10.972826000   7.988339000
H    1.946086000   8.393084000   9.995097000
H    1.082346000   8.524739000   8.449050000
H    0.244984000   8.936463000   9.963202000
H    0.396200000  11.196894000   7.810675000
H    2.027131000  11.895323000   7.957203000
H    1.801842000  10.309724000   7.195154000
27

F    4.064144000   9.864509000  17.787623000
C    3.755911000  10.257909000  16.538665000
C    3.889851000  11.589637000  16.213730000
C    3.324406000   9.294258000  15.635869000
H    4.239697000  12.316191000  16.936969000
C    3.575557000  11.991252000  14.910854000
H    3.258753000   8.256855000  15.933455000
C    3.009050000   9.709417000  14.356399000
O    3.738771000  13.283195000  14.601529000
C    3.105698000  11.050975000  13.958492000
H    2.699238000   8.957448000  13.642068000
H    3.477112000  13.339275000  13.637590000
C    2.767066000  11.512445000  12.586535000
O    2.974889000  12.717416000  12.286860000
C    2.217282000  10.601751000  11.622318000
H    1.949738000   9.592987000  11.902494000
C    2.077093000  11.041456000  10.332275000
H    2.361573000  12.069088000  10.119010000
N    1.650737000  10.339371000   9.280517000
C    1.203834000   8.971607000   9.435828000
C    1.452255000  10.972826000   7.988339000
H    1.946086000   8.393084000   9.995097000
H    1.082346000   8.524739000   8.449050000
H    0.244984000   8.936463000   9.963202000
H    0.396200000  11.196894000   7.810675000
H    2.027131000  11.895323000   7.957203000
H    1.801842000  10.309724000   7.195154000
27

F    4.064144000   9.864509000  17.787623000
C    3.755911000  10.257909000  16.538665000
C    3.889851000  11.589637000  16.213730000
C    3.324406000   9.294258000  15.635869000
H    4.239697000  12.316191000  16.936969000
C    3.575557000  11.991252000  14.910854000
H    3.258753000   8.256855000  15.933455000
C    3.009050000   9.709417000  14.356399000
O    3.738771000  13.283195000  14.601529000
C    3.105698000  11.050975000  13.958492000
H    2.699238000   8.957448000  13.642068000
H    3.477112000  13.339275000  13.637590000
C    2.767066000  11.512445000  12.586535000
O    2.974889000  12.717416000  12.286860000
C    2.217282000  10.601751000  11.622318000
H    1.949738000   9.592987000  11.902494000
C    2.077093000  11.041456000  10.332275000
H    2.361573000  12.069088000  10.119010000
N    1.650737000  10.339371000   9.280517000
C    1.203834000   8.971607000   9.435828000
C    1.452255000  10.972826000   7.988339000
H    1.946086000   8.393084000   9.995097000
H    1.082346000   8.524739000   8.449050000
H    0.244984000   8.936463000   9.963202000
H    0.396200000  11.196894000   7.810675000
H    2.027131000  11.895323000   7.957203000
H    1.801842000  10.309724000   7.195154000
